45
-1.4216224830334331e+03 frame 129   xyz file generated by TeraChem
    Fe     0.0435569964   -0.0138740812    0.5320177099
     O     0.1098988198    2.3772946569   -0.2395242955
     C    -0.7789301119    2.9969764747   -1.0920480307
     C    -0.1548084513    4.0229878686   -1.7395424863
     C     1.2033264667    4.0437938758   -1.2679171553
     C     1.3110455970    3.0395768956   -0.3628985758
     H    -1.7991771217    2.6466439962   -1.0389382750
     H    -0.6140721162    4.7093012169   -2.4386161979
     H     2.1137147802    2.6658350392    0.2533029134
     H     1.9839700220    4.7311711616   -1.5609840630
     O     2.2529600939   -0.2380294289    0.4917444130
     C     3.0161856092   -0.5791142793    1.6064092340
     C     4.2946235907   -0.7966679182    1.2254446866
     C     4.3556108340   -0.5913819516   -0.1988733680
     C     3.1093132842   -0.2595460368   -0.6031630192
     H     2.4706207575   -0.6041428262    2.5360925238
     H     5.1117053052   -1.0727879258    1.8769143166
     H     2.6489483932   -0.0253507726   -1.5478471687
     H     5.2266176654   -0.6844375754   -0.8322909265
     O    -0.0933508822   -2.2069301255    0.4915424151
     C    -0.3743837935   -2.9802952104    1.6160917942
     C    -0.4954419328   -4.2751556260    1.2480274151
     C    -0.2799957556   -4.3369139788   -0.1746850812
     C    -0.0376364430   -3.0749293577   -0.5944104361
     H    -0.4102019092   -2.4283172109    2.5418805070
     H    -0.7065666170   -5.1040060160    1.9087863663
     H     0.1929875458   -2.6107465023   -1.5387116996
     H    -0.2983251606   -5.2210629824   -0.7963393273
     O    -2.2433092014    0.0040549857    0.0465348005
     C    -3.1015724523    0.9309819187    0.6214667593
     C    -4.3487077711    0.7660114164    0.1187068594
     C    -4.2846524117   -0.3281568109   -0.8132589008
     C    -3.0017258615   -0.7607147507   -0.8235287749
     H    -2.6576704199    1.5769007522    1.3636995009
     H    -5.2235835378    1.3419738355    0.3859465741
     H    -2.4763972014   -1.5563977776   -1.3265995683
     H    -5.1007193632   -0.7407443676   -1.3896987332
     C    -0.1539741307    0.6577048819    2.4487809041
     O     0.2108528806   -0.2155761274    3.2319214483
     O    -0.6583036483    1.8259936439    2.9009228598
     H    -0.6605569828    1.7880074446    3.8845333338
     C    -0.1146048648    0.1688110794   -3.0008068650
     O     0.0879084631   -0.0623455167   -1.8291167413
     O    -0.3370255557    1.2806481033   -3.6222505647
     H    -0.3647545730    2.0571243938   -2.9865432040
