43
-1.1282354678585714e+03 frame 92   xyz file generated by TeraChem
    Co     0.0027612423    0.0015809518    0.0141859375
     C     0.4135376500    3.2800002843   -0.5593770447
     N     0.3540566160    2.1439866235   -0.3442328678
     C     0.4876236880    4.7104842557   -0.8321251668
     H    -0.0857569042    4.9472837550   -1.7340149434
     H     1.5290369436    5.0112117371   -0.9840124511
     H     0.0735757498    5.2736826753    0.0101894601
     C     3.2528593144   -0.6147101222   -0.5280887506
     N     2.1504179416   -0.3261923288   -0.3242420670
     C     4.6405691700   -0.9793168803   -0.7877785507
     H     5.2569627759   -0.0788357530   -0.8727618355
     H     4.7078897673   -1.5452386329   -1.7223966921
     H     5.0239989831   -1.5972324232    0.0303201290
     C    -0.4179536819   -3.2763594014    0.5899827345
     N    -0.3501346790   -2.1411946040    0.3728398913
     C    -0.5046954541   -4.7055484591    0.8660160480
     H     0.4946885167   -5.1512978465    0.8438450476
     H    -1.1292446249   -5.1966431878    0.1131650244
     H    -0.9450668599   -4.8693765603    1.8546178698
     C    -3.2508248445    0.6107657468    0.5500482699
     N    -2.1459158167    0.3279379083    0.3516511914
     C    -4.6423827142    0.9665777629    0.8013582054
     H    -5.1119226934    0.2148553110    1.4436343741
     H    -5.1918929978    1.0204260133   -0.1437707222
     H    -4.6941975866    1.9405808745    1.2981103210
     C     0.1383412185    0.1594816884    4.3253685853
     C    -0.3882247547   -0.2531667608    3.1337639241
     N     0.3436498742    0.2887177792    2.0910632453
     C     1.3013501705    1.0194132326    2.6496422690
     N     1.2092315093    0.9658192931    3.9949991085
     H     1.8219196018    1.4362909538    4.6493498704
     H    -0.1401100854   -0.0388791195    5.3488230297
     H    -1.2349014611   -0.8966467443    2.9540485862
     H     2.0561844597    1.5821279186    2.1221615282
     C    -0.1302704304   -0.1539171427   -4.2971853147
     C     0.3937871066    0.2599021461   -3.1048680236
     N    -0.3374737475   -0.2847922305   -2.0631661652
     C    -1.2922765988   -1.0182358829   -2.6230417729
     N    -1.1989414485   -0.9637948786   -3.9683058894
     H    -1.8091841844   -1.4361404304   -4.6235768047
     H     0.1485477350    0.0458798051   -5.3202579502
     H     1.2379119155    0.9064378169   -2.9240574438
     H    -2.0459042409   -1.5834382057   -2.0964941648
