25
-1.0561506744452834e+03 frame 172   xyz file generated by TeraChem
    Co    -0.1378774722    1.2475687477   -0.3089038972
     C     0.3693510193    3.9799558537   -0.7749334019
     O     0.0089468986    3.1792149440    0.1548247657
     O     0.4231167600    5.2595499725   -0.2952181747
     H     0.1941674301    5.2029710815    0.6688462459
     C     2.3484413147    0.8516701049   -1.7407022629
     O     2.1684737378    1.1521024612   -0.5732576082
     O     3.5875746238    0.8106183508   -2.2805704833
     H     4.1942092034    1.0758868196   -1.5629701283
     C     0.2277367095   -4.6620095463    1.2686074463
     O     0.3933880467   -5.6957432514    1.8871180534
     H     0.1401139274   -3.6575206004    1.7309174290
     H     0.1547839846   -4.6547660101    0.1578304081
     C    -2.9112726452    2.4160239107    0.2209070699
     O    -2.4029613177    1.4145941339   -0.2430321591
     H    -4.0111455341    2.4934992833    0.3153988677
     H    -2.2953434612    3.2650291867    0.5526085459
     C    -0.0560818865   -1.3460127095    1.0057203939
     O    -0.1228378219   -0.0802060209    1.1468040750
     O    -0.0103281728   -1.7787257902   -0.2938154372
     H    -0.0492906001   -1.0334425259   -0.9668426446
     C     1.2211129896    0.5162546886   -2.7038041805
     O    -0.0010605844    0.4750014764   -2.0735952278
     H     1.4905304477   -0.4381656143   -3.1965851041
     H     1.2667432449    1.2877971786   -3.4976927381
