30
-1.1868856676396049e+03 frame 78   xyz file generated by TeraChem
    Cr     0.0546050497   -0.4250059207    0.3205821375
     C     0.1813234679    2.6236270089   -0.7026562437
     O    -0.0321670791    1.7676920670    0.1986693686
     O     0.2217842717    3.9078727636   -0.1410208255
     H     0.1010395401    3.7470683987    0.8299802788
     C     3.0431940020   -0.9487082372   -0.5026992280
     O     2.0409376540   -0.3189076731   -0.0185074637
     O     2.7677299071   -2.2686056265   -0.7921079687
     H     1.8250618950   -2.4669518592   -0.5228373095
     C    -0.6379930183   -3.5113273507   -0.2018138589
     O     0.0841315799   -2.4640611161   -0.0318125336
     O    -1.9782658360   -3.2623811131   -0.0437026881
     H    -2.1057538822   -2.2925917791    0.1573643692
     C    -3.1458051231    0.1801887674    0.5448307469
     O    -2.0596663132   -0.4718942678    0.3824728840
     O    -2.9236654327    1.5361334821    0.6885909172
     H    -1.9474076451    1.6966232197    0.6257456181
     C     0.7916871648   -0.2083791062    3.7939663110
     O     0.1491262666   -0.3898815436    2.7396444131
     O     2.1898273305   -0.0542461278    3.5619365959
     H     2.2998344850   -0.1332926892    2.5810571003
     O    -0.4153257326   -0.3063734429   -2.6947526945
     C     0.7061196348    0.3368669795   -3.2701739016
     C    -1.6125860230    0.4233828095   -2.8548654580
     H    -2.3655250699   -0.0838701976   -2.2485909896
     H    -1.9315005909    0.4447188186   -3.9195817019
     H    -1.4963831828    1.4533440139   -2.4913034515
     H     1.5804010937   -0.2514913573   -2.9816184719
     H     0.8088569654    1.3569051967   -2.8750889310
     H     0.6235671545    0.3650229289   -4.3789753002
