65
-1.5750931044061399e+03 frame 52   xyz file generated by TeraChem
    Mn     0.0001023279    0.0021343415    0.1820881311
     C     0.1715619488    5.0731571752   -0.4155565497
     C     1.2973080110    4.3586874718   -0.0033030315
     C     1.1999636331    2.9790652065    0.1436479987
     N     0.0609858394    2.2888756595   -0.0903381971
     C    -1.0221673182    2.9928545978   -0.4862910254
     C    -1.0097560954    4.3727633487   -0.6613893408
     H     0.2141144884    6.1506699316   -0.5422466621
     H     2.2391445514    4.8575316208    0.1997068942
     H     2.0538711195    2.3899556251    0.4569003257
     H    -1.9194701338    2.4145442328   -0.6686324763
     H    -1.9109081607    4.8826457456   -0.9853661294
     C     5.1399423127   -0.3221985897    0.0822380664
     C     4.4242725585   -0.5369882913    1.2605307064
     C     3.0392789379   -0.4082676580    1.2369759453
     N     2.3464022596   -0.0808976465    0.1244962469
     C     3.0509193241    0.1239461373   -1.0115666446
     C     4.4362732077    0.0145247543   -1.0750897040
     H     6.2216345976   -0.4150977479    0.0659734121
     H     4.9260441875   -0.8012697960    2.1854424299
     H     2.4472140413   -0.5692737864    2.1306271520
     H     2.4743196354    0.3836141743   -1.8923954884
     H     4.9477587284    0.1890377083   -2.0158737400
     C    -0.1702837566   -5.0681385239   -0.4179475142
     C    -1.2960463340   -4.3540273138   -0.0050966052
     C    -1.1987838966   -2.9744835130    0.1425692813
     N    -0.0598930575   -2.2840827665   -0.0912600216
     C     1.0232643741   -2.9877358589   -0.4877657702
     C     1.0109521390   -4.3675480721   -0.6636243965
     H    -0.2127718454   -6.1455833275   -0.5452321768
     H    -2.2377918343   -4.8530864830    0.1978093033
     H    -2.0527062254   -2.3856055886    0.4562449567
     H     1.9204448906   -2.4092161434   -0.6699813743
     H     1.9120777412   -4.8771881526   -0.9880582353
     C    -5.1391682464    0.3259791416    0.0860010056
     C    -4.4361996861   -0.0088051378   -1.0723259805
     C    -3.0507653036   -0.1177057741   -1.0099334133
     N    -2.3455106295    0.0859212169    0.1259319569
     C    -3.0377722574    0.4113479237    1.2393630882
     C    -4.4228025624    0.5394122078    1.2641046008
     H    -6.2209116131    0.4184283451    0.0706249020
     H    -4.9482893318   -0.1822244489   -2.0129836634
     H    -2.4746561762   -0.3759613536   -1.8915069212
     H    -2.4450922695    0.5713141481    2.1327774878
     H    -4.9240121516    0.8021167128    2.1897691740
     C     0.0037961724    0.0020494964    5.3093499127
     C     0.1676186592    1.1911998038    4.5974856097
     C     0.1612535830    1.1467477071    3.2072966255
     N     0.0014002289    0.0022343161    2.5062937162
     C    -0.1573181124   -1.1423808467    3.2074484527
     C    -0.1612973293   -1.1870258643    4.5976279407
     H     0.0047435162    0.0019793919    6.3951229842
     H     0.2978287721    2.1403536640    5.1066223558
     H     0.2843315760    2.0493770630    2.6190707847
     H    -0.2815007617   -2.0449367121    2.6193270815
     H    -0.2906553847   -2.1362351796    5.1068802089
     O     0.0001985712    0.0030632354   -2.3981909357
     C     0.2276034543    1.0894380711   -3.2354406717
     C     0.1455287147    0.7071945211   -4.5313844516
     C    -0.1529263250   -0.6985567917   -4.5316558497
     C    -0.2302278545   -1.0823351893   -3.2358679135
     H     0.4144445668    2.0291500505   -2.7438750186
     H     0.2782216707    1.3445261231   -5.3945728839
     H    -0.4149332258   -2.0227375049   -2.7448006005
     H    -0.2887019330   -1.3348961816   -5.3950989460
