35
-1.9360855468127120e+03 frame 107   xyz file generated by TeraChem
    Mn    -0.2198356399    0.1034009417   -0.0936500313
     P    -0.0069853403    2.8696693946   -0.4276255337
     H    -1.1535839334    3.6172726254   -0.7710040236
     H     0.4641465448    3.6750345246    0.6314902747
     H     0.8607011212    3.3171578987   -1.4458501658
     P     2.5596410088   -0.1249921678   -0.3854241944
     H     3.3837068524    0.2034851639    0.7123127354
     H     3.1416275204   -1.3680072180   -0.7167974264
     H     3.1832173340    0.6714731022   -1.3692391883
     P    -0.5552844427   -2.6336176942    0.2732238545
     H     0.4858563473   -3.4094804116    0.8270347395
     H    -1.5988742576   -3.0059718744    1.1458888849
     H    -0.8800611566   -3.4572860397   -0.8253369878
     O    -2.4877809971    0.1357559705   -0.0781447612
     C    -3.3094856844    0.6795201470    0.9144966945
     C    -4.5712205458    0.2224589120    0.7648220819
     C    -4.5723937714   -0.6541227165   -0.3783086254
     C    -3.3120025170   -0.6842122128   -0.8625176547
     H    -2.8349424850    1.3685016139    1.5950416997
     H    -5.4200850946    0.4802415907    1.3832665387
     H    -2.8356536045   -1.1481282906   -1.7115632576
     H    -5.4233837611   -1.1819164787   -0.7869171400
     P     0.0492869023    0.4073293822    2.6783684766
     H     1.3546036747    0.5055545874    3.2057608453
     H    -0.5195158354    1.5308519124    3.3164181665
     H    -0.4532544951   -0.5984973004    3.5312167121
     O    -0.3241913026    0.0356291265   -2.3815353864
     C    -1.1606455034    0.8126313082   -3.1935895792
     C    -0.9453300886    0.5091177903   -4.4917050429
     C     0.0674665562   -0.5144074904   -4.5278088474
     C     0.4128039570   -0.7780865753   -3.2493235756
     H    -1.8320378009    1.4776972007   -2.6745139646
     H    -1.4479785119    0.9521185597   -5.3406383344
     H     1.1011455478   -1.4650580188   -2.7837172767
     H     0.4751554107   -0.9905294472   -5.4090894296
