21
-1.7033667191477562e+03 frame 67   xyz file generated by TeraChem
    Co     0.0000363330   -0.0008171385    0.0108801090
     P    -0.4076526780    2.6674457763   -0.1924171706
     H    -1.4163884485    3.2156008949    0.6367948277
     H     0.6339695008    3.5121455887    0.2617214022
     H    -0.7290213065    3.4060343488   -1.3598698032
     P     2.6854218395    0.3867201868   -0.3299604240
     H     3.2597759276    1.6157990080    0.0762986959
     H     3.5429681364   -0.4410471878    0.4350015072
     H     3.3812620368    0.2656214853   -1.5583003150
     P     0.4071078916   -2.6685571966    0.2127282945
     H     1.4180293819   -3.2150897227   -0.6148826863
     H     0.7262757864   -3.4084698032    1.3799481510
     H    -0.6331075070   -3.5130483550   -0.2449386140
     P    -2.6859344765   -0.3861116567    0.3505942381
     H    -3.2618883200   -1.6153459362   -0.0529757241
     H    -3.3832134564   -0.2603918434    1.5776603046
     H    -3.5410693045    0.4409337016   -0.4178236647
     C     0.3084487178    0.4091857176    1.9685196436
     N     0.5165902373    0.6667576387    3.0908070961
     C    -0.3086421810   -0.4105264418   -1.9468848930
     N    -0.5163164339   -0.6682868094   -3.0692169458
