23
-1.9736016386333617e+03 frame 46   xyz file generated by TeraChem
    Co    -0.0308900781    0.0237680716    0.0331513108
     P    -0.3932963327    2.6111151881    0.4736411755
     H    -1.6150691207    3.0512593814    1.0252814482
     H     0.4988861770    3.2385094008    1.3685420700
     H    -0.2949688076    3.5055234728   -0.6133988715
     P     2.5334916434    0.4988317060   -0.4417902919
     H     3.0639713474    1.7779124926   -0.1722290824
     H     3.4601962957   -0.2874877574    0.2748398010
     H     3.0318761047    0.3105283761   -1.7481797611
     P     0.2975867478   -2.5469512184   -0.4984283958
     H     1.5846225630   -3.1007482064   -0.3300861408
     H    -0.4519713313   -3.4737972482    0.2552656080
     H     0.0144287010   -3.0164555874   -1.7983299491
     P    -2.6317702189   -0.3887669425    0.3649959710
     H    -3.1621042819   -1.6801225551    0.1606436821
     H    -3.1982523529   -0.1028003520    1.6248125596
     H    -3.5138699494    0.3485097629   -0.4539085763
     P     0.3464941886   -0.3268093006    2.5994258450
     H     1.6134162910   -0.0449430306    3.1534663541
     H    -0.4551815326    0.4215430697    3.4873604100
     H     0.1443231945   -1.6115331801    3.1473349221
     C    -0.3500621727    0.3258129045   -2.1714377982
     O    -0.4948112442    0.4736382999   -3.2811241617
