21
-2.3168266487986980e+03 frame 103   xyz file generated by TeraChem
    Fe     0.1695047780   -0.0610386342    0.1436009704
     S     0.4046804861    2.5245941385   -0.1983706231
     C    -1.1512813995    3.1461997348   -0.3380620362
     N    -2.2402203530    3.5891016437   -0.4085227063
     S     2.7093345940   -0.3101058016   -0.1822556848
     C     3.0385473285   -0.0207134402   -1.8069657115
     N     3.2854160287    0.1417587380   -2.9459041250
     S    -0.3231873495   -2.7614692872    0.2371081865
     C    -0.6899700816   -3.2568193836   -1.3203006873
     N    -0.9232632077   -3.5872390317   -2.4289605432
     C    -2.6039012111    0.8947507443    1.0658423342
     O    -2.0300174306    0.1079676425    0.3315211801
     H    -2.0742050173    1.6381706571    1.6676935762
     H    -3.7039377814    0.8780476616    1.1429307283
     S     0.5470781135   -0.2974740569    2.6863949620
     C    -0.9648144547   -0.1281470525    3.3985340993
     N    -2.0215979904    0.0083247984    3.9000892125
     C     0.1956024159   -0.9624796314   -2.8145734475
     O    -0.3533737678   -0.2161349298   -2.0197956134
     H    -0.1520256728   -1.0120493949   -3.8593391816
     H     1.0534973474   -1.5838782444   -2.5427270956
