23
-8.3306073232703739e+02 frame 45   xyz file generated by TeraChem
    Fe     0.0869193468    0.0861030222   -0.0136660855
     F     0.3685958693    1.8034357699   -0.6263681665
     F     1.8122626986   -0.1553926898    0.5952648743
     F    -0.1674926757   -1.6683961560   -0.4675416652
     F    -1.6632005110    0.3770411625    0.4332268880
     O    -0.1212135503    0.0952401641    2.5829057646
     C     1.0311848485   -0.1238731266    3.3633508607
     C    -1.3089491414    0.3205023073    3.3027000876
     H    -2.0742372118    0.4600503963    2.5399214601
     H    -1.2276108386    1.2178808478    3.9413545632
     H    -1.5574800314   -0.5409531056    3.9475947292
     H     1.8244885851   -0.2786856751    2.6319725011
     H     0.9131823045   -1.0101957060    4.0115881291
     H     1.2536814418    0.7470688515    4.0051990037
     O     0.1060403296   -0.1319506529   -2.6190656617
     C     0.3120471862    1.0238039948   -3.3977633465
     C    -0.1263536734   -1.3178122762   -3.3389714091
     H    -0.2592632272   -2.0843331697   -2.5762419616
     H     0.7284717311   -1.5656815261   -3.9931892072
     H    -1.0300880509   -1.2351782072   -3.9683241500
     H     0.4714141860    1.8145560884   -2.6645075938
     H    -0.5668580171    1.2457107665   -4.0287552817
     H     1.1915407692    0.9121289575   -4.0566570005
