49
-1.0086982342005841e+03 frame 24   xyz file generated by TeraChem
    Fe     0.0889250169   -0.0272012360    0.0368273533
     O     0.0301413065    2.1628950073    0.0628718679
     C     1.0450307691    2.9486006522   -0.5986099885
     C    -1.1467269865    2.9493832844    0.3535666813
     H    -1.8474069757    2.3036645535    0.8794402027
     H    -1.5944725042    3.3127369034   -0.5773892227
     H    -0.8703722711    3.7973679680    0.9875826136
     H     1.9153416076    2.3061281662   -0.7148491426
     H     1.2969529685    3.8139589293    0.0223240826
     H     0.6834971827    3.2874626275   -1.5749392952
     O     2.2805221812   -0.0179622731   -0.0217020460
     C     3.0610276656   -0.2728056894   -1.2115923117
     C     3.1317255559    0.2221634837    1.1235010532
     H     2.4830993826    0.2365766097    1.9954889563
     H     3.6547821651    1.1772303557    1.0095732646
     H     3.8625574502   -0.5878012036    1.2135262451
     H     2.3603481511   -0.4680064065   -2.0210702028
     H     3.7055042515   -1.1425945402   -1.0507820322
     H     3.6768426250    0.6009801584   -1.4491378373
     O     0.1932091929   -2.1822839509   -0.0308563981
     C    -0.5377082116   -2.9465067468   -1.0155874888
     C     1.2816788547   -2.9468036466    0.5355894060
     H     1.7578049507   -2.3265504872    1.2920095750
     H     2.0018439945   -3.2115718760   -0.2450913857
     H     0.8837482465   -3.8569776990    0.9944721980
     H    -1.3244471441   -2.3049580928   -1.4084683966
     H    -0.9743309129   -3.8298644911   -0.5396548611
     H     0.1366478637   -3.2541609934   -1.8213878489
     C    -3.2307320703   -0.4237647027    0.4512702270
     N    -2.0940282450   -0.2588830262    0.2968869385
     C    -4.6601326168   -0.6283447511    0.6466138699
     H    -4.9728609884   -1.5615583265    0.1666361048
     H    -5.2192008202    0.2030961915    0.2047222070
     H    -4.8887912619   -0.6839412698    1.7158893233
     O     0.0981675677    0.0082337369    2.2924630752
     C    -0.5198517453   -1.0460532785    3.0590841216
     C     0.3246152830    1.1789093822    3.1075076863
     H     0.7092100279    1.9567409702    2.4505086729
     H     1.0456812799    0.9503908136    3.8993064898
     H    -0.6186087563    1.5071640368    3.5583054410
     H    -0.6506119607   -1.8968396322    2.3922084068
     H    -1.4910674526   -0.7140288323    3.4413957595
     H     0.1279239891   -1.3215682586    3.8980556064
     C    -0.3693584224    0.3699562993   -3.2659914397
     N    -0.1572981967    0.2068812624   -2.1381027150
     C    -0.6306625811    0.5709857570   -4.6851713881
     H    -1.7092481362    0.6377296707   -4.8613148080
     H    -0.2270607046   -0.2689418149   -5.2604718827
     H    -0.1550875622    1.4964238594   -5.0263281840
