37
-1.1309092160792250e+03 frame 47   xyz file generated by TeraChem
    Cr     0.0590566345    0.2172850735   -0.4279760826
     F    -0.2256758914    1.9184557485   -0.9565865622
     F     1.8320940452    0.2002217466   -0.7395953040
     C     0.8923576326   -4.5460773328    0.8525461309
     C    -0.3510460358   -3.9829097475    1.1407810051
     C    -0.6098256371   -2.6822484746    0.7175082906
     N     0.2853666296   -1.9500683791    0.0353912457
     C     1.4924087161   -2.4854218555   -0.2239838454
     C     1.8296644471   -3.7811149936    0.1600641979
     H     1.1281708572   -5.5580820592    1.1705057477
     H    -1.1074587574   -4.5336031383    1.6909962059
     H    -1.5562821295   -2.1954748257    0.9283893127
     H     2.1777717763   -1.8101013865   -0.7247505756
     H     2.8158109872   -4.1707476629   -0.0717741036
     C    -4.9358962546    0.4808469357    0.3507024065
     C    -3.9802123001    0.9725402728    1.2376636633
     C    -2.6302230752    0.7602399741    0.9661085897
     N    -2.2095283676    0.1029864660   -0.1313121903
     C    -3.1346816733   -0.3707574904   -0.9814206634
     C    -4.5029253031   -0.2096056393   -0.7808714629
     H    -5.9960011947    0.6317718049    0.5356238834
     H    -4.2675848966    1.5155194721    2.1324361998
     H    -1.8330313287    1.1029358785    1.6156839746
     H    -2.7624476212   -0.8958198260   -1.8546609106
     H    -5.2066055257   -0.6143493086   -1.5015824520
     F     0.0966503359    0.4816132797    1.3493751616
     C    -0.4861572728   -0.6688925657   -5.3697384951
     C    -0.3811725198    0.6075724415   -4.8215915250
     C    -0.2862957959    0.7476647857   -3.4382454339
     N    -0.2861823418   -0.3102879880   -2.6054845734
     C    -0.3857157542   -1.5395646671   -3.1393093642
     C    -0.4910944277   -1.7663989062   -4.5085858060
     H    -0.5611709089   -0.8084345391   -6.4447638505
     H    -0.3710798256    1.4920258624   -5.4506503536
     H    -0.2053414328    1.7066523112   -2.9391668551
     H    -0.3818789757   -2.3643232908   -2.4339831443
     H    -0.5713968259   -2.7815479575   -4.8845640056
