40
-7.2019109201385982e+02 frame 46   xyz file generated by TeraChem
    Cr    -0.1300354092   -0.0213981850   -0.0053239072
     N    -0.3297435723    2.0720661131    0.2557951295
     H    -1.3188080979    2.3151966147    0.3834534652
     H     0.1468248920    2.4542917564    1.0810268989
     H    -0.0009638044    2.6479022309   -0.5276569213
     N     1.9665751717    0.1921785129    0.2028672182
     H     2.3229198910    1.0498044390   -0.2347746088
     H     2.3168258278    0.2214529411    1.1669528389
     H     2.4852749694   -0.5696587048   -0.2479844679
     O    -0.0188309069   -2.0720330736   -0.0919227159
     C    -0.7703773411   -2.8877892461   -1.0697443993
     C     0.9291271445   -2.9129860411    0.6578755416
     H     1.3996397476   -2.3004340356    1.4275355971
     H     1.6823030181   -3.3095901865   -0.0280771212
     H     0.3778414428   -3.7352524153    1.1211382242
     H    -1.3541650842   -2.2074251151   -1.6861057624
     H    -1.4155706333   -3.5746515785   -0.5187858646
     H    -0.0610234806   -3.4482432955   -1.6821237187
     O    -2.2252576403   -0.1048809526   -0.0711330936
     C    -3.0743396433    0.5697111519   -1.0685359039
     C    -3.0058970602   -1.1711447140    0.5883505296
     H    -2.3211551722   -1.7868359369    1.1670045169
     H    -3.4992029460   -1.7785337462   -0.1731135932
     H    -3.7502467309   -0.6998020043    1.2349185505
     H    -2.6572281636    1.5551826708   -1.2682827715
     H    -4.0720258046    0.6915865992   -0.6411537465
     H    -3.1201577997   -0.0315201073   -1.9792217845
     N    -0.3805676686   -0.1771410371    2.0983527135
     H    -1.3112360660    0.1755116827    2.3487200539
     H    -0.3665096840   -1.1487526726    2.4276646600
     H     0.2730348588    0.3263082542    2.7091642141
     O     0.1178991124    0.0904495051   -2.0525373631
     C     1.1164465713   -0.7430908658   -2.7507761938
     C    -0.2006480420    1.2470943737   -2.9107913550
     H    -0.9857273794    1.8254868522   -2.4322738003
     H    -0.5677305376    0.8679538111   -3.8671870021
     H     0.7006315808    1.8471983350   -3.0645989175
     H     1.3232653392   -1.6078020786   -2.1271186137
     H     2.0193789206   -0.1541908006   -2.9333982751
     H     0.6842747218   -1.0680404041   -3.7000235471
