43
-2.3415073477684773e+03 frame 111   xyz file generated by TeraChem
    Fe    -0.0081914501   -0.1879801512   -0.5259111946
     C    -1.1894066988    4.6500543747    0.2329564077
     C    -0.1027392084    4.3100203561   -0.5692353859
     C     0.2169133161    2.9650837329   -0.7389442384
     N    -0.4759287203    1.9722359741   -0.1472945550
     C    -1.5283473820    2.3083219727    0.6266435033
     C    -1.9174062491    3.6263017153    0.8391469189
     H    -1.4693073150    5.6896963107    0.3774711060
     H     0.4903167838    5.0649392087   -1.0745636334
     H     1.0326610196    2.6747538907   -1.3905151166
     H    -2.0785843441    1.4910173774    1.0789390617
     H    -2.7797822874    3.8353784540    1.4635428901
     C     4.8426068835   -1.3153156197    0.2234713657
     C     3.8283963523   -2.0584744200    0.8273299058
     C     2.5055198046   -1.6850015754    0.6172373630
     N     2.1559358602   -0.6337633066   -0.1522650322
     C     3.1396716931    0.0739010277   -0.7417172501
     C     4.4885741389   -0.2296647502   -0.5740611288
     H     5.8857642224   -1.5827404063    0.3662714967
     H     4.0486263547   -2.9205921890    1.4482198232
     H     1.6952994515   -2.2467933343    1.0681063684
     H     2.8390619524    0.8886781296   -1.3898792098
     H     5.2357596225    0.3748107964   -1.0773553147
     S    -0.4844027544   -2.7978060364   -1.1219399589
     C    -0.4511508614   -3.6868976139    0.2962191936
     N    -0.3888566806   -4.2973061198    1.2983088131
     S    -2.6107384543   -0.6858848769   -1.1229885086
     C    -3.5030924732   -0.6625906117    0.2933865023
     N    -4.1135658221   -0.6086807564    1.2958804748
     C    -0.2513266746   -0.4406956198    4.5538717861
     C    -1.0828176234   -1.2745231955    3.8134611692
     C    -1.0277709236   -1.2171225806    2.4212458895
     N    -0.2039863351   -0.3887141632    1.7558522323
     C     0.5981960421    0.4158067008    2.4836339951
     C     0.6084323999    0.4238502320    3.8723516046
     H    -0.2695402713   -0.4608287933    5.6398187662
     H    -1.7694372775   -1.9649485623    4.2906029097
     H    -1.6633509832   -1.8545396532    1.8240206904
     H     1.2513454530    1.0725481182    1.9184505452
     H     1.2763418895    1.0937251988    4.4042614243
     S     0.1858619920    0.0095458560   -3.0299860875
     C     1.3507879597    1.1897222644   -3.2958235070
     N     2.1695552708    2.0195673014   -3.4442208131
