19
-1.8219692953152212e+03 frame 133   xyz file generated by TeraChem
    Co    -0.1254099775    0.2252611661   -0.3105454849
     C     0.4618479599    3.3347839866   -0.6426604870
     O    -0.1888967250    2.2520565415   -0.8331431954
     O     1.3745798251    3.2458624417    0.3854622036
     H     1.2413629791    2.3782938048    0.8565072456
     C     2.6768120215   -1.5604022197   -0.1104007742
     O     2.0781441005   -0.4977858920   -0.3312573846
     O     2.3254568882   -2.7079454530    0.2497409887
     H     0.6391436628   -2.5228938114    0.4115791725
     C    -1.2092325596   -3.0380164413    0.8048677485
     O    -0.2906442633   -2.1469796393    0.4225366241
     O    -2.3887910241   -2.4509866521    0.7963635368
     H    -2.3394661687   -1.4630982254    0.5113326005
     C    -3.2772871010    0.7667558591   -0.1632239298
     O    -2.2026125309    0.0999633892    0.0574603295
     O    -3.0356709923    1.9681207951   -0.7738520629
     H    -2.0566413851    2.0904026142   -0.9149192177
    Cl     0.3547718222    0.7051624778    2.2296890499
    Cl    -0.3837899586   -0.7012932392   -2.6474151256
