35
-6.3986081835856328e+02 frame 26   xyz file generated by TeraChem
    Mn     0.0003554479   -0.0002126447    0.0061309746
     N    -0.3222705536    2.2943106845   -0.1134200255
     H    -1.3171222933    2.5306278830   -0.1262703785
     H     0.0753056824    2.8449787618    0.6514621908
     H     0.0491859149    2.7084512729   -0.9713247163
     N     2.2954414561    0.3220298718    0.1162305834
     H     2.5307841536    1.3169154344    0.1398969861
     H     2.7169963043   -0.0601067222    0.9658093150
     H     2.8403988577   -0.0650365711   -0.6580795925
     N     0.3240939056   -2.2940571338   -0.1193524589
     H     1.3189833952   -2.5304663300   -0.1245793979
     H    -0.0805943332   -2.8492463013    0.6384827904
     H    -0.0393625489   -2.7027186491   -0.9832946123
     N    -2.2944766980   -0.3225472145    0.1195570755
     H    -2.5305920304   -1.3173728538    0.1374505621
     H    -2.7129487323    0.0542241318    0.9730487231
     H    -2.8415670857    0.0700569741   -0.6504374892
     O     0.0008568805   -0.0009975698    2.3288435938
     C     0.8107521014   -0.8722185700    3.1444657269
     C    -0.8090818225    0.8684915928    3.1462371208
     H    -1.3946388052    1.4992668683    2.4745396413
     H    -0.1741073269    1.5001628343    3.7767941001
     H    -1.4808694732    0.2797763478    3.7805614870
     H     1.3959703354   -1.5018538028    2.4714121700
     H     0.1757490910   -1.5049435034    3.7739219341
     H     1.4828399965   -0.2848146013    3.7796678978
     O    -0.0011557914    0.0007769787   -2.3229992709
     C     0.8647329406    0.8149032857   -3.1398251460
     C    -0.8692180572   -0.8112970106   -3.1395659053
     H    -1.4990057210   -1.3974164071   -2.4673820714
     H    -0.2796417892   -1.4825273784   -3.7737623232
     H    -1.5023460340   -0.1781682404   -3.7705868567
     H     1.4949510658    1.4007211580   -2.4677846957
     H     0.2734693146    1.4864931770   -3.7720485282
     H     1.4974863986    0.1833289020   -3.7727790056
