21
-8.2160162951022107e+02 frame 19   xyz file generated by TeraChem
    Mn    -0.2090812442   -0.0015967499   -0.1719047084
     C     0.0079930991    2.4682460525    0.0486374196
     O     0.0496238083    3.5909855467    0.0924306369
     C     1.9668033159   -0.0088920932   -0.1004987418
     O     3.0887345690   -0.0123329674   -0.1011491560
     C    -0.0053787184   -2.4776764399    0.0263844038
     O     0.0285158241   -3.6010975335    0.0584983440
     C    -3.2809075519    0.0031292756    0.0326566955
     N    -2.1124937238    0.0009574538   -0.0497793992
     C    -4.7131921299    0.0057250747    0.1413058198
     H    -5.1652671083   -0.0380017838   -0.8623184481
     H    -5.0460405243    0.9260592391    0.6479601235
     H    -5.0436701975   -0.8685031420    0.7252183083
     C    -0.1243174944   -0.0138301862    2.0038867366
     O    -0.1193897243   -0.0198208337    3.1257937223
     C    -0.0234358895    0.0064033696   -3.2448641485
     N    -0.0985287370    0.0039644039   -2.0759774413
     C     0.0763237579    0.0087149184   -4.6778135303
     H    -0.9310082929    0.0115368630   -5.1236977570
     H     0.6181001812   -0.8900066038   -5.0143263411
     H     0.6218610485    0.9062362654   -5.0113876488
