19
-1.4315225520172885e+03 frame 153   xyz file generated by TeraChem
    Fe     0.6525102662   -1.5308182928    0.2131295669
     C    -0.8749552917   -0.2651377581   -0.3292533842
     N    -1.7434399332    0.4541854001   -0.6461722925
     C     2.5129201208   -0.6921000670    0.4574036766
     N     3.5761457734   -0.2262896152    0.6144332374
     C     0.2891139882   -3.5321517205    0.5096359950
     N     0.0956202726   -4.6734777921    0.6874166304
     P    -4.8443826308    2.5647822554   -0.9607533035
     H    -4.7141544188    3.1160771212    0.3481573983
     H    -5.7059824179    1.5170639608   -0.5205795296
     H    -3.6610298325    1.7790173691   -0.8661243553
     P     0.1964855756   -1.0792527694    2.9315798692
     H     0.2940912934    0.2389807073    3.4508400417
     H    -1.0280761179   -1.3909979640    3.5822231558
     H     1.0284537078   -1.6756741391    3.9159943199
     P     1.1533587743   -1.9897651401   -2.4886347631
     H     1.4439702924   -0.8764287510   -3.3201583248
     H     2.1870238219   -2.8189380765   -3.0032021126
     H     0.1294409605   -2.5172572236   -3.3193344481
