16
-1.9583087269874036e+03 frame 196   xyz file generated by TeraChem
    Co     1.3323042716   -0.6429587777    3.6298654415
     C     0.9888134412    1.2578986677    3.2952698125
     O     0.8649168818    2.3760889624    3.1052917332
     C     3.2309576104   -0.6480205043    3.5345755641
     O     4.3756223503   -0.6347714892    3.5456781522
     C     0.9697699616   -2.5739370788    3.8735658355
     O     0.7083920335   -3.6760227174    4.0016251965
     S    -3.7216156522   -0.7686587998    0.8084830022
     C    -4.7107633363    0.1586268582   -0.1455533233
     N    -5.4385897819    0.8009428365   -0.8142747598
     S     0.9776758056   -0.2333040487    6.0931713033
     C     1.6787552360   -1.6124604011    6.7680155108
     N     2.1689623111   -2.5713739803    7.2332020575
     S     0.8753663460   -1.0771541112    1.0393897111
     C    -0.4685918297   -0.1535591119    0.7207761369
     N    -1.3979217027    0.5351262205    0.4751046639
