33
-1.2230996721476788e+03 frame 40   xyz file generated by TeraChem
    Fe     0.0896343988   -0.0967457340    0.0504802313
     C     0.6263339145    3.1718398941   -0.4515165101
     N     0.4550797360    2.0412949255   -0.2696356755
     C     0.8401099793    4.5941982247   -0.6810907654
     H     0.7261415231    4.8214695955   -1.7459413234
     H     1.8488444270    4.8756422729   -0.3620966734
     H     0.1101165679    5.1777098055   -0.1108852422
     C     3.3639594210   -0.5729463880    0.5755871649
     N     2.2339873912   -0.3965847932    0.3950242948
     C     4.7854371653   -0.7946222827    0.8033256570
     H     5.3235529993    0.1572219803    0.7489672141
     H     5.1843429409   -1.4736236213    0.0428332912
     H     4.9401887808   -1.2356635270    1.7932651813
     C    -0.4498888090   -3.3681948790    0.5349468976
     N    -0.2767206885   -2.2356880271    0.3678277814
     C    -0.6666002090   -4.7929093793    0.7463227489
     H     0.2890435660   -5.2895865884    0.9429562755
     H    -1.1229068328   -5.2373880753   -0.1440539281
     H    -1.3310835467   -4.9462074320    1.6027559703
     C    -3.1841154335    0.3867868549   -0.4797336085
     N    -2.0556529294    0.2064185001   -0.2939112942
     C    -4.6036719588    0.6155497113   -0.7125963280
     H    -5.1963331107    0.0537982887    0.0165766973
     H    -4.8747473677    0.2883095614   -1.7214999310
     H    -4.8301452615    1.6817583758   -0.6102998971
     C    -0.3962597738    0.4371300457    3.3199058437
     N    -0.2260488822    0.2542833807    2.1894831485
     C    -0.6114458121    0.6668870985    4.7426882837
     H    -1.6733180578    0.5505760223    4.9821108432
     H    -0.2963187112    1.6808998992    5.0088324185
     H    -0.0324038653   -0.0524994510    5.3303261580
     C     0.3995740015   -0.4622476647   -2.1323219333
     S     0.6117764993   -0.7067073241   -3.6187950404
