31
-1.9499130391394365e+03 frame 52   xyz file generated by TeraChem
    Mn    -0.0442923282   -0.0427130392   -0.0423233091
    Cl    -0.4466263962    2.3600257057   -0.4451372642
    Cl     2.3583065507   -0.4450307281   -0.4447004235
     O    -0.0870938902   -2.5969804621   -0.4216596805
     C     0.3646131903   -3.0481902582   -1.6914799276
     C     0.5555596255   -3.2868987515    0.6499791691
     H     0.1645207110   -2.8588797073    1.5726782568
     H     1.6389343849   -3.1231856358    0.6082878641
     H     0.3317956388   -4.3646487277    0.5878657756
     H    -0.1855273331   -2.4807332457   -2.4416139251
     H     0.1654643365   -4.1265327875   -1.8056047049
     H     1.4375689531   -2.8515053541   -1.8061104392
     O    -2.5977995270   -0.4212123202   -0.0847276910
     C    -3.2878225106    0.6504786891    0.5580158029
     C    -3.0497692340   -1.6910256847    0.3663589117
     H    -2.4816460921   -2.4412364067   -0.1830046133
     H    -4.1278365366   -1.8050458865    0.1657081143
     H    -2.8545507361   -1.8056050585    1.4395792370
     H    -2.8594939578    1.5731602492    0.1672832710
     H    -3.1243069190    0.6083956274    1.6413863018
     H    -4.3654578377    0.5885255599    0.3338226342
    Cl    -0.4466895295   -0.4451549718    2.3603704707
     O    -0.4235181415   -0.0854076835   -2.5967325436
     C     0.6481919632    0.5570575207   -3.2868144678
     C    -1.6933364640    0.3661928432   -3.0480083551
     H    -2.4434579778   -0.1832536491   -2.4798510222
     H    -1.8078536312    0.1660505225   -4.1261354603
     H    -1.8076921401    1.4393471271   -2.8522770051
     H     1.5708171869    0.1659780749   -2.8586739701
     H     0.6065601742    1.6404458756   -3.1232348308
     H     0.5860500078    0.3330545227   -4.3644975740
