27
-1.0195974407846096e+03 frame 93   xyz file generated by TeraChem
    Fe    -0.2519230553    0.7173311562    0.5828029065
     F    -0.6323616240    2.3106061344   -0.3471564670
     F     1.5076878838    0.9916742356    0.8622474605
     F    -0.2815873420   -1.2102250426    0.5937563791
     C    -5.1138844261   -0.2725090086   -1.0259962084
     C    -4.5463215153    0.9861651580   -1.2301155863
     C    -3.2196211633    1.1908186924   -0.8461097867
     N    -2.4821761398    0.2222365784   -0.2969370508
     C    -3.0172579458   -0.9858573893   -0.0989616465
     C    -4.3367592927   -1.2782925092   -0.4492882098
     H    -6.1465262672   -0.4661817629   -1.3104031934
     H    -5.1190880824    1.7961339102   -1.6747522553
     H    -2.6904203106    2.1333242118   -0.9587021334
     H    -2.3270582317   -1.6961729442    0.3488894317
     H    -4.7428975032   -2.2709570530   -0.2720450108
     F    -1.0529869347    1.0202004815    2.1762200372
     C     0.9472543198   -0.5753173886   -4.3868652725
     C     0.7161375383    0.7552558555   -4.0347808871
     C     0.3493408983    1.0435080902   -2.7189053684
     N     0.2158872931    0.0922900786   -1.7893235033
     C     0.4358649136   -1.1840198933   -2.1207347402
     C     0.8031152450   -1.5645498324   -3.4131544162
     H     1.2353543439   -0.8367365344   -5.4034335683
     H     0.8180637570    1.5562516730   -4.7627214691
     H     0.1414376666    2.0443736998   -2.3506434120
     H     0.2997629035   -1.8756443113   -1.2933116286
     H     0.9740182668   -2.6124839974   -3.6467791515
