28
-1.7190933375445056e+03 frame 803   xyz file generated by TeraChem
    Fe    62.0140413043   58.0262132194   -2.5819365056
     C    60.6063285481   60.8643646600   -3.0650008450
     N    61.1055004818   59.8320713486   -2.8864869324
     C    59.9802351641   62.1550745649   -3.2877376506
     H    59.6669095698   62.2381118284   -4.3344984445
     H    60.6913571320   62.9562297145   -3.0575023085
     H    59.1015401985   62.2557143082   -2.6405793945
     C    64.3291502001   57.7542550960   -4.7675131899
     N    63.4883417733   57.8486315403   -3.9731797436
     C    65.3800538638   57.6350375311   -5.7611703354
     H    65.4445688939   58.5627893108   -6.3411679488
     H    65.1568993191   56.8023877024   -6.4377116374
     H    66.3398924887   57.4527363736   -5.2649111279
     S    -5.5417328505  -61.0754793438    5.2219603714
     H    -6.7272920639  -61.6130381093    5.5940260168
     H    -4.8662350487  -62.2310264674    5.4251823066
     S   -63.0320524790   -2.2569895065   -2.2230641325
     H   -62.8166622544   -0.9219779973   -2.2897299427
     H   -62.0201677263   -2.5406807703   -3.0766914547
     C    62.6258834293   57.5256746079    0.5099533919
     N    62.3842495944   57.6838226263   -0.6143689528
     C    62.9283696424   57.3277076281    1.9150168695
     H    63.9911244380   57.5269149169    2.0945149466
     H    62.7027376315   56.2935005263    2.1991562995
     H    62.3244613961   58.0104019358    2.5234440779
     S    60.2911811425   56.3036670820   -3.3392716578
     H    60.8115302814   55.1260331324   -2.9308346063
     H    59.3522032562   56.3479671370   -2.3696503647
