22
-8.4691293078564956e+02 frame 58   xyz file generated by TeraChem
    Mn     0.0220573309    0.0260373634    0.1595043595
     N    -0.2412741835    2.3525962526    0.3935346406
     H    -1.1493063461    2.7185912741    0.6812048184
     H     0.4572750933    2.8964012333    0.9007260386
     H    -0.1353437893    2.5876002682   -0.5972669017
     N     2.3458120530    0.2759996320    0.4201650156
     H     2.6790728935    1.1651839453    0.7937608393
     H     2.9257598676   -0.4470191868    0.8473500661
     H     2.5703908556    0.2920118454   -0.5788911423
     N     0.3537922734   -2.2541692376   -0.2803350698
     H     1.2121128193   -2.6950894545    0.0518272985
     H    -0.3942981118   -2.9284283820   -0.1151324932
     H     0.4497717179   -2.1636567983   -1.2960878165
     N    -2.2628095031   -0.1986099027   -0.3172997381
     H    -2.7332470323   -1.0855439806   -0.1340614978
     H    -2.9100200558    0.5325416430   -0.0208341311
     H    -2.1797746264   -0.1163706722   -1.3347347786
     N    -0.3083907641   -0.2951456145    2.4367811694
     H    -1.1656976807    0.1339119391    2.7868499411
     H    -0.3709922634   -1.2865561564    2.6712083421
     H     0.4526944929    0.0829082789    3.0019857254
    Cl     0.3824400295    0.4068685543   -2.2386143751
