49
-1.2909468739535191e+03 frame 85   xyz file generated by TeraChem
    Mn     0.0672145188   -0.0319158028   -0.0015882139
     C     1.1925611243    4.4443926147   -0.2210083694
     C     1.0511562694    3.3331251073    0.5661700260
     N     0.4853259844    2.3046676840   -0.1632128462
     C     0.2918964454    2.7846133762   -1.3815603973
     N     0.7032047352    4.0753989707   -1.4586298057
     H     0.6662323226    4.6587851063   -2.2828076887
     H     1.5851269163    5.4304405351   -0.0258661750
     H     1.3305490167    3.2027323222    1.6013822399
     H    -0.1002810127    2.1953265300   -2.2007734996
     C     4.4999808220   -0.8384748356    0.0568718114
     C     3.2276458277   -0.7949372233   -0.4467834664
     N     2.3405594532   -0.4242731469    0.5467431857
     C     3.0670716113   -0.2427944884    1.6355441680
     N     4.3797878782   -0.4836761881    1.3863315364
     H     5.1346085850   -0.4114009399    2.0545671123
     H     5.4519465570   -1.0788531197   -0.3906259544
     H     2.8780109308   -0.9968630440   -1.4480502877
     H     2.6902868091    0.0500972512    2.6043689636
     C     0.0406948617   -4.5728357746    0.6062706132
     C     0.6512630199   -3.3473108348    0.5932782860
     N    -0.2951686152   -2.3488966727    0.4560061740
     C    -1.4630481656   -2.9643202721    0.3839064298
     N    -1.3076446903   -4.3101941219    0.4724851901
     H    -2.0483081741   -4.9967453585    0.4374770017
     H     0.4263260381   -5.5769552697    0.6919193925
     H     1.7037253753   -3.1185227983    0.6617458065
     H    -2.4231169577   -2.4832886061    0.2711465479
     C    -4.5396316720    0.4528322424   -0.1521293078
     C    -3.4156330026    0.3120063856    0.6176148147
     N    -2.2984698419    0.2181771651   -0.1909759205
     C    -2.7380759485    0.3004344392   -1.4379055136
     N    -4.0878994112    0.4429367034   -1.4581487697
     H    -4.6594814545    0.5315647084   -2.2867350585
     H    -5.5844449137    0.5588859963    0.0967684784
     H    -3.3348817473    0.2728440352    1.6938967895
     H    -2.0813117854    0.2553534102   -2.3000240777
     C    -0.5322041176   -0.0325057518    4.5460444953
     C    -0.1530810416   -0.6029555625    3.3596009408
     N    -0.2979885749    0.3078356187    2.3302119096
     C    -0.7618388886    1.4143427413    2.8861540679
     N    -0.9190003728    1.2534700291    4.2257018176
     H    -1.2609651669    1.9518004258    4.8715146025
     H    -0.5670283692   -0.4092742165    5.5565954945
     H     0.2000119486   -1.6059262188    3.1734754802
     H    -0.9968717834    2.3307473005    2.3650855030
     N     0.1669993567   -0.1499062844   -2.0563379093
     H    -0.0128684082   -1.0781832467   -2.4464665790
     H     1.0331446704    0.1506997214   -2.5077917886
