49
-1.4107823026280851e+03 frame 235   xyz file generated by TeraChem
    Co    -0.1592097743    0.1789547724    0.6520210629
     O    -0.3457115749    1.9080203439   -0.4829621413
     C     0.4708185335    2.1206634363   -1.6622706176
     C    -0.9328712318    3.1383268489    0.0112796503
     H    -1.5956772767    2.8742494261    0.8346110708
     H    -1.5075119103    3.6141880980   -0.7884975294
     H    -0.1438012211    3.8132830868    0.3563687097
     H     0.8586284587    1.1503569095   -1.9728461312
     H     1.2943840990    2.8012608033   -1.4283404911
     H    -0.1508018339    2.5441947764   -2.4561708459
     O     1.9863781827    0.3241704346    0.6649560518
     C     2.9335642173   -0.2971309061   -0.2490664048
     C     2.5823152024    1.4779189746    1.3067725777
     H     1.8351917054    1.9137549422    1.9689415500
     H     2.8880418798    2.2098979091    0.5524379010
     H     3.4563872239    1.1652225084    1.8862843087
     H     2.4145824274   -1.0643099713   -0.8176605729
     H     3.7509071999   -0.7365266178    0.3304553743
     H     3.3321711620    0.4607572904   -0.9307085340
     O    -0.0480525178   -1.5436477502   -0.4202975973
     C    -0.8167916444   -1.8429196777   -1.6155323493
     C     0.5202481254   -2.7380087053    0.1852870246
     H     1.1302665932   -2.4122100254    1.0297083602
     H     1.1440730377   -3.2429269581   -0.5548459301
     H    -0.2863449620   -3.3938274014    0.5265584374
     H    -1.1557019592   -0.8931267029   -2.0284608589
     H    -1.6705732079   -2.4766943783   -1.3585579375
     H    -0.1597823907   -2.3491516134   -2.3263119284
     O    -2.3251922592    0.0136451999    0.6560991257
     C    -3.2362579114    0.4441924856   -0.3846039571
     C    -2.8903721159   -1.0642520984    1.4351766897
     H    -2.1953130162   -1.2765494900    2.2483122475
     H    -3.0285596996   -1.9538355342    0.8116108304
     H    -3.8543564859   -0.7536746746    1.8494451684
     H    -2.7191981953    1.1975936525   -0.9751600670
     H    -4.1334626060    0.8717985873    0.0731979969
     H    -3.5137520135   -0.4052363676   -1.0161449866
     O    -0.2367328107    0.5719141789    2.7060641878
     C    -1.3254464487    1.2264063641    3.4119912825
     C     0.6982982121   -0.0547985236    3.6270732085
     H     1.5224852145   -0.4461167115    3.0323546665
     H     0.1953402902   -0.8613790681    4.1689679739
     H     1.0691669242    0.6943346673    4.3321501061
     H    -2.0547122484    1.5320333924    2.6652806900
     H    -0.9303363301    2.0932621064    3.9487788305
     H    -1.7826094676    0.5260187335    4.1167762011
     S     3.7841568735   -4.6143011010   -4.4396517096
     C     2.9485754148   -3.6164539526   -3.4434472905
     N     2.3460734281   -2.8977977405   -2.7201867641
