21
-2.7369642079445689e+03 frame 95   xyz file generated by TeraChem
    Cr    -0.3345510347   -0.1318107798    0.0741792676
     S    -0.1354801161    2.3845066691   -0.3354615121
     C     1.4102322350    2.7973651763   -0.8838955475
     N     2.4453925903    3.1631877227   -1.2997618710
     S     2.1592110010   -0.4680604466    0.4793774677
     C     2.2288533804   -0.8521196864    2.1166933038
     N     2.3288670003   -1.0863315113    3.2647439590
     S    -0.8436915586   -2.5915835899    0.4353617956
     C     0.1847998734   -3.4124594121   -0.6198726909
     N     0.8449602980   -4.0238071075   -1.3756214430
     S    -2.8292914126    0.3346785028    0.3509770739
     C    -3.4094779214    0.0842431195   -1.2132340395
     N    -3.8448435679   -0.0763488449   -2.2927138762
     P    -0.3572559094    1.1023854137    3.1821586888
     H     0.8637423278    1.8181116261    3.2369437096
     H    -1.1704691142    2.2522366892    3.4198755632
     H    -0.3260609584    0.7243538305    4.5593324503
     P    -0.1028688866   -0.6056585749   -2.7898728579
     H     1.1799947337   -0.7386551644   -3.3873078385
     H    -0.6747884836   -1.7224040301   -3.4494049875
     H    -0.5778661545    0.3674228096   -3.7077334221
