17
-2.2300515260241636e+03 frame 139   xyz file generated by TeraChem
    Fe    -0.2620718663    0.5416009120   -0.2648538679
    Cl    -1.5683508781    1.8388894454   -1.5697520753
    Cl     1.9180400876    0.9282980142   -0.6674409778
    Cl    -0.6658937973   -1.6434616452   -0.6690300323
     C    -5.4913745811   -0.5051337995    0.8330965307
     N    -6.5813706942   -0.7821873133    1.1237472346
     C    -4.1220540897   -0.1542268251    0.4658901505
     H    -3.5690230533    0.2253569536    1.3308516708
     H    -4.1124638670    0.6191712052   -0.3082076242
     H    -3.5837509759   -1.0262358930    0.0812149830
    Cl    -0.6638435736    0.9280564239    1.9155838177
     C     0.8223372108   -0.4859598273   -5.5012409995
     N     1.1173344845   -0.7585619401   -6.5911878870
     C     0.4491068540   -0.1405107150   -4.1321078162
     H     1.3102550298    0.2430878158   -3.5758587942
     H     0.0685204117   -1.0162308020   -3.5969239632
     H    -0.3297820815    0.6280401023   -4.1230916391
