40
-1.1559645045674501e+03 frame 129   xyz file generated by TeraChem
    Fe     0.0675497672   -0.1496753253   -0.1066764104
     C    -0.2884635755    3.0102774449    0.6810495870
     O    -0.6712417809    2.2373506817   -0.1731319027
     O     0.0685718865    2.7870318633    1.9081791512
     H    -0.0121795629    1.7762861583    2.0888435504
     C     2.1433406397    0.1913885670   -0.3682327807
     O     3.0803274319   -0.5973280064   -0.3742319853
     O     2.4294389593    1.5264504387   -0.6001592027
     H     3.4073600125    1.5754064952   -0.7016327338
     O     0.0277648279   -2.3843630579   -0.1225070620
     C    -1.1894223451   -3.1131246996    0.0913789548
     C     1.1507191622   -3.0338812820    0.5074255772
     H     2.0319680278   -2.4427623650    0.2547661364
     H     1.2424048318   -4.0539538364    0.1127352503
     H     0.9954063905   -3.0594320067    1.5912131838
     H    -1.9747353570   -2.5767043307   -0.4404904575
     H    -1.4150470387   -3.1408485779    1.1624198075
     H    -1.0823858208   -4.1301614920   -0.3072521689
     O    -2.3793555288   -0.1914709883   -0.4402071625
     C    -2.9361648204    0.4008082597   -1.6109339516
     C    -3.2130360255   -0.0039874330    0.7037387408
     H    -2.7984128055   -0.6056842722    1.5110622733
     H    -4.2347311073   -0.3385618304    0.4774997266
     H    -3.2344594887    1.0529027712    0.9997958341
     H    -2.2658983512    0.1472071705   -2.4296845917
     H    -3.0005518686    1.4908719808   -1.5016985012
     H    -3.9380153109   -0.0081990148   -1.8009638781
     C    -0.5360713861   -0.8158565212    2.6307734567
     O    -0.2963175426    0.2087066199    1.8696815445
     O    -0.4086765107   -0.5199154686    3.9264966066
     H    -0.1263036119    0.4228950685    4.0375442352
     O     0.0366132960   -0.1013986678   -2.4432371871
     C     0.3181830401    1.1322674067   -3.1192957785
     C     0.6786441700   -1.2178517789   -3.0718544202
     H     0.4031579293   -2.1003028978   -2.4947999493
     H     1.7678292758   -1.0945197274   -3.0481915167
     H     0.3331040440   -1.3111149267   -4.1093118064
     H    -0.2082869902    1.9180968614   -2.5789132068
     H    -0.0375208016    1.0748076518   -4.1563085933
     H     1.3929548133    1.3415112974   -3.1005455431
