22
-8.0174183983072260e+02 frame 57   xyz file generated by TeraChem
    Mn    -0.2392237984   -0.2052280068   -0.7074553645
     F    -0.4405471259    1.4962248737   -1.0843961545
     F     1.4616003568   -0.4109581135   -1.0818901811
     H     0.3881785197   -4.4772442832    1.8313194675
     H    -0.8050740505   -5.2508635088    0.7507169208
     C     0.1061233441   -4.6475631079    0.7886125275
     N    -0.1202521439   -3.3982429285    0.1542834739
     C    -0.2581928619   -2.3280391914   -0.2836260769
     H     0.9122311419   -5.1784252996    0.2749157590
     H    -4.5352570575    0.1962193377    1.8746475946
     H    -5.0551069594    1.1688631020    0.4710975194
     C    -4.6736734295    0.1950405281    0.7898960207
     N    -3.4278574591   -0.0533996372    0.1570241758
     C    -2.3597067702   -0.2068388483   -0.2806185588
     H    -5.3913522974   -0.5822856739    0.5133956015
     F    -0.2863733495   -0.2550841272    1.2200932786
     H    -0.0880117253    1.2508477341   -5.7506137411
     H     1.4644132414    0.9869237271   -4.9113673592
     C     0.5630494067    0.5000847267   -5.2940995192
     N    -0.1148336370   -0.1321764927   -4.2181009792
     C    -0.6112557741   -0.5943659535   -3.2642633736
     H     0.8416173137   -0.2424840305   -6.0472155101
