46
-1.1625535978948878e+03 frame 42   xyz file generated by TeraChem
    Cr    -0.0220510406    0.0036629602    0.0134324615
     C     0.5440420201    3.1507793162   -0.3265494541
     N     0.3273543844    2.0132451603   -0.2656115197
     C     0.8123220814    4.5775248808   -0.4010150305
     H     0.7099260772    4.9271419855   -1.4347099940
     H     1.8308266907    4.7831862434   -0.0518991532
     H     0.1027354666    5.1223578393    0.2324552439
     C     3.1681365247   -0.4865130376    0.5203207737
     N     2.0355389793   -0.3068073713    0.3488968960
     C     4.5890511378   -0.7120672287    0.7341623036
     H     5.1375509840    0.2301301405    0.6229097576
     H     4.9664372288   -1.4365241806    0.0036090173
     H     4.7579411041   -1.1029446369    1.7439509095
     C    -0.4994681151   -3.1452919316    0.4247888616
     N    -0.3385524289   -2.0031321863    0.3062665608
     C    -0.7040959306   -4.5766443879    0.5730343971
     H     0.2545639660   -5.0725013669    0.7640520180
     H    -1.1400868041   -4.9868826694   -0.3452034212
     H    -1.3837482176   -4.7734874318    1.4101073982
     C    -4.2287246008    0.1428853218   -0.1085231571
     C    -3.0429489039   -0.2571492886    0.4351527165
     N    -1.9991271491    0.2849740363   -0.3116663582
     C    -2.5634253736    1.0008560501   -1.2937446495
     N    -3.8988654925    0.9323005706   -1.1916648233
     H    -4.5593608531    1.3868807566   -1.8151868516
     H    -5.2520847796   -0.0569005730    0.1731007508
     H    -2.8694258303   -0.8751780491    1.3006512445
     H    -2.0428733092    1.5426139483   -2.0676438892
     C    -0.9733844381    1.3022405462    3.9519694881
     C    -1.0775841260    1.3699389610    2.5928144583
     N    -0.3085571945    0.3563968197    2.0271078761
     C     0.2504235747   -0.3065209450    3.0464534752
     N    -0.1330508996    0.2393420417    4.2111889193
     H     0.1491925203   -0.0800364494    5.1328457239
     H    -1.4133370143    1.8982493327    4.7378573740
     H    -1.6498425019    2.0599575440    1.9944026534
     H     0.9142572546   -1.1532504182    2.9696101650
     C     0.0627819134   -1.2169858915   -4.0631955533
     C    -0.4668812271   -1.2116631827   -2.8050033392
     N     0.2686372554   -0.3405342339   -2.0058435784
     C     1.2308329997    0.1656116409   -2.7857777439
     N     1.1286531416   -0.3422674707   -4.0245231197
     H     1.7381775004   -0.1182809201   -4.8052258585
     H    -0.2166017188   -1.7506724930   -4.9596228613
     H    -1.3141019921   -1.7609801090   -2.4271011575
     H     1.9877822302    0.8745380123   -2.4883592510
