27
-8.7925187786407309e+02 frame 44   xyz file generated by TeraChem
    Fe    -0.0006299695   -0.0010725806    0.0083530576
     O    -0.8380083936    1.7953844027    0.1722713281
     H    -1.7462069163    1.5604314163    0.4281665521
     O     1.7472557821    0.7996026680   -0.2387006554
     H     1.6016595070    1.7518000572   -0.1180712277
     O     0.8369419658   -1.7973238490   -0.1549868978
     H     1.7457426049   -1.5625319071   -0.4088839287
     O    -1.7482923038   -0.8020662894    0.2554963057
     H    -1.6020790115   -1.7543339862    0.1361310634
     C     0.7851717943   -0.1498021918    4.5520350536
     C     0.2650183901    0.5443505655    3.4887394846
     N     0.4261666025   -0.1792336970    2.3343979307
     C     1.0308363339   -1.2974555831    2.6643761558
     N     1.2727987050   -1.3296185237    4.0084388772
     H     1.7252611242   -2.0774159892    4.5114803720
     H     0.8567545621    0.0684990235    5.6077031830
     H    -0.2112237898    1.5144477377    3.4668331117
     H     1.2782815456   -2.0501961523    1.9206933338
     C    -0.7822186250    0.1531717060   -4.5364015374
     C    -0.2637007283   -0.5428005573   -3.4734943417
     N    -0.4271931366    0.1784921361   -2.3180466249
     C    -1.0315665726    1.2971902962   -2.6470112007
     N    -1.2711839087    1.3318006104   -3.9914368874
     H    -1.7227692624    2.0805196589   -4.4938950843
     H    -0.8517578106   -0.0631081001   -5.5926222099
     H     0.2128687217   -1.5127631566   -3.4527066346
     H    -1.2801112870    2.0486889936   -1.9024136111
