13
-6.7499289003149681e+02 frame 737   xyz file generated by TeraChem
    Co    -0.6259903288   -0.0654368683   -0.0051248177
     O    -0.0255838250    1.3357973915    1.3909398800
     H     0.7825355299    1.6487594317    0.9521528718
     O     0.2538920129    0.7359044999   -1.7405099223
     H    -0.5521607257    1.1685050468   -2.0681021085
     O     0.1523108614   -1.8107734135    0.2836890736
     H     0.4776378758   -2.0068525084   -0.6097973850
     O    -2.5178105354    0.2086646431   -0.3285326766
     H    -2.8809934342    0.3148306348    0.5672558446
     C     0.6808987731    1.2171983743    3.2241867204
     O    -0.2062532691    0.9018805579    3.9240966454
     C     0.5388380973   -0.3234130409   -3.3408402454
     O     1.4606528803   -1.0292930761   -3.1538200394
