25
-1.4582904698280779e+03 frame 103   xyz file generated by TeraChem
    Cr     0.0750366515    0.0974014707    0.1166364435
     C     0.4113316875    3.1684968659    0.1058037314
     O     0.4051426385    2.0278004129   -0.3745992693
     H     0.1076315142    3.3586558630    1.1443127179
     H     0.7258524024    4.0105288645   -0.5248834173
     C     3.0823053117   -0.0689069003   -0.6737866158
     O     2.0433109997   -0.3260922471   -0.0524214521
     H     4.0210944533   -0.5480320482   -0.3655314712
     H     3.0912817826    0.6270647712   -1.5238668642
     P    -0.3006719183   -2.4475493718    0.5070512829
     H     0.5964767472   -3.2696108026   -0.2011918514
     H    -0.1183177460   -2.8653195322    1.8396515128
     H    -1.5547047115   -2.9988601894    0.1826477105
     P    -2.4738741201    0.4660325788    0.4918974889
     H    -2.9305537889    0.0047628535    1.7409934128
     H    -2.8594500410    1.8203356455    0.4988838222
     H    -3.3847339060   -0.1115413549   -0.4125237632
     C     0.9903085607    0.2832033200    3.0612279173
     O     0.2740197972    0.5204025550    2.0795682507
     H     0.7753749781    0.7877420821    4.0125329397
     H     1.8338436356   -0.4182001704    3.0026845856
     P    -0.4189229878   -0.2683442241   -2.4113925217
     H     0.7259839089   -0.4161417432   -3.2182970496
     H    -1.2080658026   -1.3684823484   -2.7965133492
     H    -1.0799469374    0.8201121977   -3.0112298574
