17
-4.6145684666871671e+02 frame 73   xyz file generated by TeraChem
    Cr     0.1318093486   -0.1336493255    0.1373909873
     N    -0.1496808333    1.9699586541    0.4928148671
     H    -0.1407838722    2.2326775909   -0.5034246028
     H    -1.1663958297    1.9073200595    0.6534478099
     N     2.1985950248    0.2219372213   -0.3183487049
     H     2.2742599385    1.0481087393    0.2882080455
     H     2.5469954232   -0.5212721449    0.2990988158
     N     0.4154247764   -2.2357809905   -0.1793239318
     H    -0.5976591818   -2.4276164408   -0.1719913699
     H     0.5756507911   -2.1584976528   -1.1940741653
     O    -1.8320849796   -0.4227353261    0.5022175302
     H    -1.7738342036   -0.5116223288    1.4699182119
     N     0.5547244604   -0.4223497624    2.2367432802
     H    -0.1064077970    0.2618572488    2.6357611748
     H     0.0838829529   -1.3291046029    2.3753540155
     O    -0.1661492268    0.1534016385   -1.8041867619
     H     0.7779787352    0.2638434469   -2.0195813213
