15
-1.5802195781658156e+03 frame 175   xyz file generated by TeraChem
    Co     0.3344997855    0.8598603750   -0.8990406237
     C    -0.0250571923    3.0539302860   -1.3407480401
     O    -0.2960700659    4.0846557782   -1.7171748314
     C     2.5038698222    1.2309185310   -0.5953063380
     O     3.6188247224    1.4103734761   -0.5483503547
     C     0.5949745449   -1.3721954905   -0.6054699531
     O     0.6131172470   -2.5023630056   -0.6145697330
     S    -4.3661034018    0.1105154585   -1.6456942656
     C    -2.7983213166    0.3634864867   -1.3537997749
     N    -1.6433868105    0.5496098863   -1.1417425111
     C    -0.0303206985    1.1652211984    1.2717674127
     O    -0.3214406343    1.3060663702    2.3548270824
     S     1.0367229174    0.1641470458   -5.6133512076
     C     0.8446608349    0.4016563995   -4.0280699442
     N     0.6999204826    0.5765305563   -2.8609482264
