19
-7.8126481126151327e+02 frame 112   xyz file generated by TeraChem
    Fe     0.4641013565    0.0695306208    0.4375246314
     C    -0.8248839153    2.8103529254   -0.6574766435
     O     0.2317483376    2.3609882245   -0.2551838806
     H    -0.8669638070    3.8107103717   -1.1263343013
     H    -1.7640488690    2.2412683183   -0.5681609520
     C     3.6052425358   -0.1841009983    0.0101881644
     O     2.9084981112    0.0019200553    0.9915893190
     H     3.1403690301   -0.3402080529   -0.9750370506
     H     4.7079574361   -0.1950475374    0.0942768131
     C    -0.1529323057   -2.7836381707   -0.7921979128
     O    -0.2728895043   -2.2490589034    0.2946792476
     H     0.2902279340   -2.2362662761   -1.6371113168
     H    -0.4867224959   -3.8262268545   -0.9460416278
     C    -2.3940311966    0.1295732990    1.5858797831
     O    -2.3212420043    0.1555802556    0.3688600939
     H    -2.5505683769    1.0438929801    2.1849062734
     H    -2.3780031777   -0.8154107060    2.1531263329
     F    -0.1302611108    0.3188905715    2.1318241430
     F     1.0355290956   -0.2271781074   -1.2759612277
