16
-2.5140920554986001e+03 frame 37   xyz file generated by TeraChem
    Mn    -0.0490475986    0.2181082758   -0.0279140307
    Cl    -0.4731426738    2.5308142977   -0.4541872506
    Cl     2.1664511323   -0.1510665712   -0.3132487252
     P    -0.0371938228   -2.9559461992   -0.0065136670
     H     0.9599335490   -3.1137160629    0.9815334405
     H    -0.9605550315   -3.8715928440    0.5667233544
     H     0.5167552569   -3.8867378315   -0.9266569452
     P    -2.5633252295    0.1078817129   -0.0077338404
     H    -3.2418962237   -1.0606627476    0.4038058390
     H    -3.0504640685    1.0417542435    0.9186690865
     H    -3.3297645086    0.4471256287   -1.1452342585
    Cl    -0.3327342301   -0.1540272074    2.1897334585
     P    -0.0428491721    0.0960727192   -2.5461798291
     H     0.8824092741    1.0272220321   -3.0411438240
     H     0.3644958990   -1.0742689431   -3.2243117846
     H    -1.1824631419    0.4345672039   -3.3099401855
