13
-2.0776460167250270e+03 frame 40   xyz file generated by TeraChem
    Fe     0.2802462231    0.8156297686   -0.1471440822
    Cl    -0.4257057157    2.4645420685   -1.9408753954
    Cl     2.6884481463    0.3756970038    0.1057566631
    Cl    -2.3454272398   -2.9320220342   -1.3740289842
     N    -1.8093066792    0.1305669858    0.0829491648
     H    -2.0430943559   -0.8290129639   -0.2147300508
     H    -2.0909624769    0.2894608569    1.0478147928
     H    -2.3152758536    0.7837562671   -0.5141912758
    Cl    -0.1107622915    1.9072070405    2.0551725834
     N     0.3000740189   -0.7459574391   -1.7355773358
     H     0.1402179838   -0.2042327050   -2.5835871445
     H     1.2324467164   -1.1513665002   -1.7692748785
     H    -0.4110496682   -1.4893994537   -1.6698550562
