55
-1.1756500945773191e+03 frame 57   xyz file generated by TeraChem
    Mn     0.0425102192   -0.0011521742   -0.0027188900
     O     0.0256218248    2.2714302489   -0.0632880850
     C     1.2104769694    3.0789256711   -0.2983460006
     C    -1.1744063863    3.0871829795   -0.1257126709
     H    -2.0107758440    2.4309325478    0.1041555126
     H    -1.2875891606    3.5152558189   -1.1267266821
     H    -1.1117024019    3.9003303944    0.6050730217
     H     2.0604621988    2.4008958139   -0.2727421085
     H     1.3022883256    3.8381140293    0.4845020957
     H     1.1425990759    3.5742132540   -1.2723362856
     O     2.3363689611   -0.0011108944   -0.0029642457
     C     3.1713609606   -0.2342165272   -1.1695995025
     C     3.1714719909    0.2320859967    1.1635982555
     H     2.5043959477    0.3927932358    2.0077341014
     H     3.7991329231    1.1134390807    1.0013076642
     H     3.8049768786   -0.6413864853    1.3464701706
     H     2.5042115266   -0.3947864754   -2.0136904719
     H     3.7989894149   -1.1156233704   -1.0074732463
     H     3.8049094570    0.6392339519   -1.3524250052
     O     0.0257808321   -2.2739112891    0.0577287292
     C    -1.1742084203   -3.0896466560    0.1200289532
     C     1.2106368515   -3.0813521068    0.2925948071
     H     2.0606588758   -2.4033852450    0.2664471823
     H     1.3021538023   -3.8408324723   -0.4900076513
     H     1.1431613139   -3.5763115867    1.2667911798
     H    -2.0106417413   -2.4332722281   -0.1092674695
     H    -1.2871679515   -3.5182536394    1.1208491832
     H    -1.1117490547   -3.9024443525   -0.6111747268
     O    -2.2839039016   -0.0011233380   -0.0028300621
     C    -3.1207271090    0.2589155513   -1.1614202660
     C    -3.1207015662   -0.2611547297    1.1557870340
     H    -2.4610625561   -0.5044583603    1.9865066389
     H    -3.7904442458   -1.1021045258    0.9516844212
     H    -3.7139678594    0.6280495621    1.3916923529
     H    -2.4611950752    0.5034908475   -1.9918394216
     H    -3.7913108957    1.0990640817   -0.9567987268
     H    -3.7131187584   -0.6306778283   -1.3980666440
     C    -0.0210996173   -0.1919018923    4.6021798747
     C     0.0451703570   -0.7859032601    3.3253929479
     N     0.0003622018    0.1803505167    2.3648947753
     C    -0.0903420564    1.3464766981    3.0236110980
     N    -0.1050967922    1.1424721001    4.3696634945
     H    -0.1661131222    1.8683563156    5.0818933981
     H    -0.0125512005   -0.6248335091    5.5944397964
     H     0.1221512955   -1.8379461011    3.0921184182
     H    -0.1400306154    2.3239355302    2.5668634901
     C    -0.0213006356    0.1891967503   -4.6078364566
     C     0.0451106395    0.7833166173   -3.3311080433
     N     0.0000406164   -0.1828019722   -2.3705048144
     C    -0.0908680909   -1.3489574432   -3.0290991388
     N    -0.1056127847   -1.1451119145   -4.3751840816
     H    -0.1667721206   -1.8710584722   -5.0873271392
     H    -0.0125744661    0.6220143696   -5.6001332514
     H     0.1222345988    1.8353661972   -3.0979544345
     H    -0.1407418087   -2.3263549699   -2.5722662213
