22
-9.4183189430099878e+02 frame 62   xyz file generated by TeraChem
    Co    -0.3241307275   -0.3458646927    0.3749210712
     C     1.1349561986    1.6465514253   -0.8599199327
     O    -0.0751207825    1.5703572369   -0.4448863332
     O     1.6483711178    2.8337840191   -1.2568021242
     H     0.9643220594    3.4964179683   -1.0522510293
     C     1.9649074146    0.4949253082   -0.9325771642
     O     1.5238964619   -0.6635072418   -0.5810240143
     O     3.2294674878    0.6334944644   -1.3968430313
     H     3.6425447312   -0.2433728956   -1.3096219588
     O    -0.0589556758   -2.4674648082    0.7941014282
     H     0.8049767142   -2.5754576355    0.3561654180
     H     0.1525375939   -2.3396491967    1.7404299144
     O    -2.4289716505    0.0954841178    0.7827476491
     H    -2.9725949111   -0.7025327038    0.6761094373
     H    -2.4543457639    0.3074774053    1.7409710254
     C    -0.4482033415    0.6146389116    3.0488183663
     O     0.1327820749   -0.2737152002    2.3340458413
     O    -1.6029507458    0.0904252188    3.6056082664
     H    -1.6004624256   -0.8888488025    3.4331140111
     O    -1.2964670831   -0.6819041452   -1.5625608286
     H    -0.5588186511   -0.8910046046   -2.1606630303
     H    -1.4963481996    0.2589182983   -1.7319564131
