22
-2.2742853082464053e+03 frame 105   xyz file generated by TeraChem
    Co    -0.0815031647   -0.0984378095   -0.0454207643
     S     0.2953168186    2.4475410610    0.4462481589
     H    -0.1653003449    3.0140123645   -0.6890020636
     H    -0.7353670322    2.8788357887    1.2051976204
     S     2.4833490732   -0.5198432647    0.3379317504
     H     2.9991354776    0.6445288577    0.7890014292
     H     2.9993089178   -0.3866827601   -0.9018810762
     S    -0.4481222027   -2.6614180334   -0.5233357083
     H     0.2630509566   -2.8887647859   -1.6476858707
     H     0.4202184920   -3.3155713635    0.2783797534
     S    -2.6485882964    0.3156089564   -0.4516643859
     H    -3.1984249289   -0.8881745520   -0.7217088812
     H    -3.2486909713    0.4368320442    0.7520446654
     S    -0.5814739555   -0.3643295878    2.5167337315
     H    -1.0652240224   -1.6130512444    2.6890267212
     H     0.5818256456   -0.6153469018    3.1557136161
     C     0.2903124042    0.4240873095   -3.2622595932
     N     0.2122015533    0.2085812764   -2.1245213185
     C     0.3883572113    0.6933604288   -4.6887375867
     H     1.4330925937    0.8751420902   -4.9639947540
     H    -0.2078516241    1.5776689762   -4.9401511445
     H     0.0109514331   -0.1643606461   -5.2563879831
