21
-1.6282120601365771e+03 frame 174   xyz file generated by TeraChem
    Mn    -0.4121040662   -0.6113743266    0.7017041481
     P    -1.4138410619    2.1975690288    1.2995946727
     H    -2.3843105084    2.1903011448    2.3308456180
     H    -1.1416719332    3.5965281578    1.3796470237
     H    -2.3455464738    2.3136756470    0.2393866640
     P     3.3955950171    0.5598627206   -0.1421146148
     H     2.8071591751    1.5662334743   -0.9478540394
     H     4.7223270252    1.0752911220   -0.2813416018
     H     3.5342105120   -0.3747418173   -1.1980840139
     P     0.7815535841   -3.2315024745    0.1112259240
     H     2.1036919097   -3.0838478993   -0.3704380486
     H     0.9399806800   -4.5824288939    0.5444170236
     H     0.2075912107   -3.5636584374   -1.1392819559
     O    -2.2482710901   -0.7301650854    1.1303149897
     H    -2.8849054903   -1.0091779250    0.4589394320
     P     1.1294459098   -0.3836959043    2.9403924299
     H     2.2755010124   -1.1851921573    3.1517857143
     H     1.7320332514    0.8603469191    3.2341065890
     H     0.5389899261   -0.5943867081    4.2121560850
     O     0.5788288949   -0.4583170655   -0.9222847318
     H     0.1233008969   -0.2622661665   -1.7526774222
