22
-1.6269916451700651e+03 frame 105   xyz file generated by TeraChem
    Cr     0.0481216813    0.0153700404    0.0025140254
     C     0.3529031879    3.1134573526   -0.0398165248
     O     0.3750756467    1.9394413172   -0.4407258539
     H     0.0257819541    3.3746561562    0.9761140942
     H     0.6708927039    3.9119440549   -0.7233704320
     C     2.9514879258   -0.0702728745   -0.9434488627
     O     1.9862348437   -0.4059107410   -0.2387344791
     H     3.9183177328   -0.5662341504   -0.7843670272
     H     2.8639636867    0.7053037203   -1.7159612979
     C     0.2194490572   -3.0058834294    0.3512675284
     O    -0.3642211355   -1.9127051518    0.2805566540
     H    -0.3794907253   -3.9106898507    0.5195208529
     H     1.3097720141   -3.0884100368    0.2501898299
     S    -2.4751169626    0.4503667723    0.3362050328
     H    -2.8869678012   -0.6961535642    0.9259640884
     H    -2.6135154209    1.2152877274    1.4454514765
     S     0.4715516466    0.4378896983    2.5096893769
     H    -0.1489892878   -0.5993910761    3.1177290437
     H     1.7193739956   -0.0611940012    2.6738931537
     S    -0.3700248854   -0.3305429743   -2.5278273104
     H    -1.3812110800   -1.2284251027   -2.5858191938
     H    -1.1403838146    0.7323279421   -2.8564242774
