22
-2.6478104048376190e+03 frame 104   xyz file generated by TeraChem
    Co    -0.4405308166   -0.3661007300   -0.4386382223
     P    -0.1346973959    2.2401980260   -0.4410674163
     H    -1.0047460948    2.9164293639    0.4448808437
     H     1.0286003745    3.0093308149   -0.1747194212
     H    -0.5081994863    2.8892180183   -1.6338725868
     P     2.1778800260   -0.6834504167   -0.2653424541
     H     2.8691536308    0.2843812510   -1.0329918556
     H     3.0492337854   -0.6641454762    0.8574613589
     H     2.6959520380   -1.8364455523   -0.8828500245
     S    -0.8945858087   -2.8297792658   -0.0007383606
     C     0.5832659667   -3.4066070200    0.5680411565
     N     1.6105327334   -3.7896427181    0.9911447880
     S    -2.8721593932    0.0846423988   -0.8066974857
     C    -3.2733828992    0.9672970347    0.5716572028
     N    -3.5251663178    1.5902034101    1.5358877932
     P    -0.7836863459   -0.3362130824    2.2257328423
     H     0.0791697017   -1.2415179987    2.8905636105
     H    -0.7010227827    0.7069635305    3.1902654377
     H    -2.0074087264   -0.8818462231    2.6582895738
     S     0.0360944552   -0.6910129041   -2.8750759021
     C     0.8920245388    0.7174555324   -3.2289154028
     N     1.4998201960    1.6988206962   -3.4497952275
