49
-1.3320720086673145e+03 frame 76   xyz file generated by TeraChem
    Co     0.0451167432    0.1011876447    0.0089668320
     C     1.3980577924    4.3141936906    0.8546635948
     C     1.4426857961    2.9676659054    1.1009396642
     N     0.4192124097    2.3276310851    0.4282060767
     C    -0.2339974504    3.2745165786   -0.2203157409
     N     0.3209076404    4.4929350602    0.0097867530
     H     0.0093266922    5.3708752636   -0.3815379737
     H     2.0149263722    5.1361238260    1.1837195451
     H     2.1489448155    2.4131112672    1.6997819971
     H    -1.0873494965    3.1196531418   -0.8621860226
     C     4.4533773735   -0.5126654294    0.1048456459
     C     3.2280727629   -0.2160548047   -0.4308467343
     N     2.2610438869   -0.2552007980    0.5548627926
     C     2.8911916655   -0.5714296527    1.6721360280
     N     4.2216649072   -0.7361305492    1.4478846206
     H     4.9148418367   -0.9865246276    2.1392249441
     H     5.4394275655   -0.5820198195   -0.3279491572
     H     2.9531635479    0.0171371778   -1.4477303443
     H     2.4319175828   -0.7025230044    2.6404696518
     C     0.1515395422   -4.2490465776   -0.9692683321
     C     0.7179870580   -3.0461266970   -0.6421505164
     N    -0.2635538370   -2.1439384711   -0.2804282629
     C    -1.4102224276   -2.7913435778   -0.3895200723
     N    -1.2074571594   -4.0702635604   -0.8014218256
     H    -1.9248200920   -4.7622004411   -0.9670967170
     H     0.5726435067   -5.1862692916   -1.2988392994
     H     1.7588928095   -2.7615755925   -0.6521558699
     H    -2.3872736691   -2.3781363811   -0.1880587994
     C    -4.4659979355    0.4835368993   -0.0473237914
     C    -3.3160411109    0.2745163679    0.6684722311
     N    -2.2189384990    0.3762655492   -0.1636420693
     C    -2.6927763200    0.6433808059   -1.3690475523
     N    -4.0495114736    0.7185514698   -1.3432248438
     H    -4.6468492750    0.9107770405   -2.1353286937
     H    -5.5078343889    0.4923298750    0.2344988007
     H    -3.2028835282    0.0590401892    1.7204412750
     H    -2.0638841763    0.7742439950   -2.2394628814
     C    -0.6646075086   -1.1274847329    4.2631733274
     C    -0.4115394728   -1.3759937943    2.9397609065
     N    -0.3211585445   -0.1845239637    2.2448036876
     C    -0.5192158211    0.7722653746    3.1351965010
     N    -0.7315175150    0.2477084040    4.3699934520
     H    -0.9104724649    0.7726147083    5.2149236578
     H    -0.8015510630   -1.7785831892    5.1127705431
     H    -0.2914693834   -2.3240188681    2.4384420828
     H    -0.5122961658    1.8311884271    2.9264467712
     N     0.3246177354    0.3942563086   -1.8650114618
     H     0.2047079088   -0.3282861903   -2.5736540888
     H     0.9543735573    1.1001438654   -2.2437501814
