17
-7.5137207409750374e+02 frame 180   xyz file generated by TeraChem
    Cr    -1.5127241276   -1.5189120175   -0.8021652314
     F    -2.3284212585    0.1406375902   -1.1254803815
     F     0.0758567480   -1.2766004568   -1.5895955055
     F    -1.7636218924   -3.2892599286   -0.5217434538
     H    -1.5544525184    1.3888366194    0.1841595598
     H     0.0183957009    1.3340483092    1.0057939571
     C    -1.0110446875    1.6905781929    1.0875073783
     N    -1.0208081894    3.1119186158    1.2658822474
     C    -1.0357631209    4.2783218002    1.4085986800
     H    -1.4764743552    1.1993714494    1.9439566978
     F    -1.2012755920   -1.1304847194    0.9208629905
     H    -3.9860015066   -0.6784271624   -5.3191156369
     H    -2.3762316919   -1.1128233973   -5.9462897318
     C    -3.2094565296   -1.4500276252   -5.3215589090
     N    -2.7551780161   -1.6796698434   -4.0018353883
     C    -2.3618957682   -1.7829500897   -2.9041077917
     H    -3.6218449519   -2.3712179126   -5.7457013891
