17
-1.9434099285749103e+03 frame 17   xyz file generated by TeraChem
    Cr    -0.0103773808    0.0410963081   -0.0694992782
     C    -0.2795745146    2.1297625415   -0.3092049693
     S    -0.4695035326    3.6168990204   -0.4757764837
     C     2.0668201139    0.3180778441   -0.3382771757
     S     3.5512191883    0.5113051799   -0.5278756027
     C     0.3585251771   -2.0282615127    0.2556719459
     S     0.6290661144   -3.4931675456    0.4944223244
     N    -2.1005475497   -0.1969284000    0.2635828343
     H    -2.3789503846   -1.1824906289    0.3301390031
     H    -2.4197113691    0.2305284812    1.1403090608
     H    -2.7030629469    0.2075753394   -0.4622977520
     C     0.3188702684    0.3559857906    1.9933489092
     S     0.5593899218    0.5781054484    3.4663202493
     N    -0.2425212643   -0.2278265270   -2.1696545023
     H    -1.1442835430    0.0911403338   -2.5416832422
     H     0.4647813724    0.2647283538   -2.7265417032
     H    -0.1711223258   -1.2120542818   -2.4519676948
