25
-7.4933891420111183e+02 frame 216   xyz file generated by TeraChem
    Fe     0.4788399096   -0.4610726243    0.3100449523
     C    -2.8152754410    3.2077266209   -2.1761205381
     N    -3.7621094354    3.8762443212   -2.0878669153
     C    -1.6262960344    2.3690255472   -2.2858832942
     H    -0.7287223115    2.9973775938   -2.3014507980
     H    -1.6624211124    1.7973037352   -3.2201448979
     H    -1.5449387844    1.6553851858   -1.4380649765
     C     4.6843021807    2.2148586453   -1.6588108293
     N     5.3650141926    2.5159669609   -2.5516840453
     C     3.8272244595    1.8376278100   -0.5398833030
     H     3.1457306201    1.0016866361   -0.8028460684
     H     3.2208898499    2.6956644082   -0.2288507710
     H     4.4430838169    1.5249591948    0.3107913771
     C    -0.9472559781   -4.7517064642    3.0348593963
     N    -0.8217398622   -5.5423502632    3.8778250521
     C    -1.1013342341   -3.7613083314    1.9745788782
     H    -2.1253279890   -3.3716174348    1.9729477404
     H    -0.9085750964   -4.2241728242    1.0003409599
     H    -0.4064540732   -2.9052339712    2.0974404518
     O    -1.2023318505    0.3357810069   -0.0478708234
     H    -1.5625714786    0.7107439621    0.7702861074
     O     0.6941294442   -1.2659192995    2.0076318519
     H     1.5990636260   -1.5937104196    2.1231307551
     O     1.8571170253   -0.4650605859   -0.9800013077
     H     1.5141225168   -0.4236921986   -1.8855454719
