43
-1.7470948502525816e+03 frame 50   xyz file generated by TeraChem
    Co     0.0453101564   -0.0776276202    0.1234591863
     O     0.0442598729    2.1622114498    0.1196623194
     C     1.1400056313    2.8663126846   -0.5040220703
     C    -1.1222399907    3.0223021010    0.1805136513
     H    -1.8970609372    2.4885878223    0.7285614974
     H    -1.4662980428    3.2507867896   -0.8315141102
     H    -0.8575253175    3.9433344845    0.7111525623
     H     1.9878916894    2.1865516267   -0.5108743566
     H     1.3793391691    3.7583961934    0.0846685164
     H     0.8690511141    3.1536338779   -1.5240713299
     O     2.2511656873   -0.0662403428    0.1303636353
     C     3.0981071596   -0.3167715906   -1.0129034223
     C     3.0295552140    0.2419037381    1.3047282208
     H     2.3275787877    0.2962304266    2.1325039517
     H     3.5528261183    1.1952066091    1.1726565723
     H     3.7607147656   -0.5545920526    1.4816570102
     H     2.4494554954   -0.5234800463   -1.8622997206
     H     3.7462061092   -1.1759899051   -0.8104865839
     H     3.7118853459    0.5663902008   -1.2211289359
     O     0.1401201572   -2.3328081072    0.1117370930
     C    -0.8685653538   -3.1594107015   -0.5098916607
     C     1.3462730456   -3.0815623497    0.3423967018
     H     2.0584694114   -2.4073302194    0.8126239607
     H     1.7527548812   -3.4488478634   -0.6070391428
     H     1.1380793088   -3.9317427384    1.0014195313
     H    -1.7655832246   -2.5551232118   -0.6321010519
     H    -1.0861211435   -4.0162302639    0.1367537845
     H    -0.5179174564   -3.5096373253   -1.4863515536
     S    -2.4437701754   -0.1473154037    0.6648359646
     C    -3.2186470256   -0.1226887633   -0.8055698781
     N    -3.7412123454   -0.0987229064   -1.8609560841
     O     0.0582384039   -0.0642169844    2.3555511269
     C    -0.1187502838    1.1394908341    3.1316528546
     C    -0.1612556605   -1.2472765680    3.1528482299
     H    -0.1127869208   -2.0936365861    2.4719814842
     H    -1.1483175716   -1.2041466466    3.6256022829
     H     0.6150573421   -1.3218181673    3.9219362385
     H     0.1124362351    1.9688375102    2.4674014991
     H     0.5655635234    1.1298494078    3.9870264494
     H    -1.1527515110    1.2082166063    3.4858992941
     S    -0.2372304659   -0.3851118069   -2.2953648516
     C    -0.8197662003    1.0997987435   -2.7847295514
     N    -1.2243043124    2.1496456508   -3.1234002278
