27
-7.8547783945972333e+02 frame 164   xyz file generated by TeraChem
    Mn     0.2550250003   -0.0783810907    0.1590276460
     C     0.9577749922    1.3179176228   -1.3470628589
     N     1.3384003963    2.0307771870   -2.1977760502
     C     1.6669167078   -0.2027139127    1.7944214726
     N     2.3990729598   -0.2573902937    2.7096651074
     C    -0.0136056985   -1.9830635848   -0.8291948548
     N    -0.1488922886   -2.9969086411   -1.4040779197
     C    -1.6183561243    0.6290541956    1.0002178751
     N    -2.6104395580    1.0090532965    1.4984351603
     O    -1.4151460073    0.9008719460    5.6348378221
     C    -0.2365066867    0.7025284977    4.8602003646
     C    -2.5365816408    0.2995411607    5.0138534552
     H    -3.4157730170    0.5539925651    5.6197245491
     H    -2.4391039629   -0.8010029113    4.9825773100
     H    -2.6801015475    0.6538066471    3.9832704174
     H     0.5764525610    1.2326316790    5.3656171421
     H    -0.3476335373    1.0900353183    3.8407801588
     H     0.0300183767   -0.3621828904    4.7839525277
     O     1.6687512607   -0.7673125207   -5.4463634287
     C     1.2453515787    0.5824782216   -5.4819321834
     C     1.0945939499   -1.4505839428   -4.3364180304
     H     1.5134750397   -2.4604844775   -4.3209741755
     H    -0.0006898317   -1.5246394555   -4.4280715372
     H     1.3189960698   -0.9516803059   -3.3872383644
     H     1.7955095013    1.0730485260   -6.2952541018
     H     1.4392599263    1.1047200150   -4.5342171332
     H     0.1629931183    0.6612902053   -5.6960262284
