51
-1.2090514443818124e+03 frame 79   xyz file generated by TeraChem
    Mn    -0.1425427193    0.0727696114   -0.0114485681
     C    -0.1593115044    5.3447743390    0.6579109795
     C     1.0393989294    4.6363262352    0.5806264195
     C     0.9878349150    3.2530741771    0.4117453541
     N    -0.1621237084    2.5697748894    0.3169986253
     C    -1.3101292773    3.2587028538    0.3909194736
     C    -1.3599572895    4.6414007844    0.5621507934
     H    -0.1581790559    6.4234410747    0.7906598280
     H     1.9986298600    5.1407098793    0.6493720164
     H     1.8888763105    2.6493412259    0.3520033697
     H    -2.2154280261    2.6637289017    0.3062631308
     H    -2.3181799969    5.1494032217    0.6167790169
     C     5.2663385964   -0.2779544422    0.5228911096
     C     4.5075757265   -0.2430684595    1.6937523860
     C     3.1336837830   -0.0266050710    1.5874876258
     N     2.5105791632    0.1451318032    0.4147283463
     C     3.2415168005    0.1079886026   -0.7109067356
     C     4.6224748660   -0.0981240599   -0.7013500537
     H     6.3399428380   -0.4442202566    0.5653458930
     H     4.9664684126   -0.3806997590    2.6685508500
     H     2.4958716894    0.0093430381    2.4685202174
     H     2.6531671641    0.2342278375   -1.6208765822
     H     5.1760784028   -0.1188440225   -1.6358583267
     C     0.5177641366   -5.1037850090   -0.5670563810
     C    -0.1498587239   -4.5778045874    0.5392135519
     C    -0.2878652778   -3.1932046360    0.6427736388
     N     0.1994274964   -2.3513207018   -0.2806302680
     C     0.8390852188   -2.8574121979   -1.3440240609
     C     1.0224930427   -4.2277092572   -1.5286839882
     H     0.6422155988   -6.1780863218   -0.6787102895
     H    -0.5581978807   -5.2251654133    1.3099327050
     H    -0.7928491894   -2.7031052156    1.4736522080
     H     1.2034163030   -2.1155024447   -2.0510392301
     H     1.5482188602   -4.5952465539   -2.4051944635
     C    -5.3919524880   -0.3215790412   -0.7218739827
     C    -4.5938618749    0.1345121342   -1.7722734164
     C    -3.2248454912    0.2798654762   -1.5508818269
     N    -2.6463543857    0.0038680885   -0.3742515023
     C    -3.4124991012   -0.4397418362    0.6347552285
     C    -4.7910773061   -0.6151975315    0.5023645528
     H    -6.4630934460   -0.4491310207   -0.8578199715
     H    -5.0195269016    0.3706845600   -2.7432791701
     H    -2.5442306993    0.6209849154   -2.3280149173
     H    -2.8569399355   -0.6608680402    1.5467190001
     H    -5.3763909553   -0.9772445778    1.3428281224
     N    -0.5932502696   -0.3639721659    1.9673806710
     H    -0.8601014565    0.4485459645    2.5294399620
     H     0.1641216659   -0.7955481064    2.5029312656
     N     0.2984546209    0.2827482143   -2.0035242715
     H     0.3093927276    1.2238798936   -2.3995372091
     H    -0.1726872359   -0.2969546099   -2.6995385901
