39
-1.2086701170575789e+03 frame 76   xyz file generated by TeraChem
    Mn    -0.0009607101   -0.0080542625   -0.0552014725
     C     0.5459846350    4.5451311427    0.0952795834
     C     0.4724004073    3.4125007967   -0.6724094443
     N     0.3226331609    2.3093307718    0.1369183020
     C     0.3028474491    2.7507434135    1.3798716042
     N     0.4357814346    4.1045548679    1.4041199969
     H     0.4444972514    4.6837907551    2.2304330608
     H     0.6630619043    5.5894167370   -0.1516146297
     H     0.5158930627    3.3088903886   -1.7469553249
     H     0.1892816534    2.0897833364    2.2299434355
     C     4.5439546622   -0.6716944664    0.1529205346
     C     3.4301952706   -0.5667147285   -0.6384024154
     N     2.3190808139   -0.3545877729    0.1459643570
     C     2.7371810810   -0.3287399327    1.3970615865
     N     4.0835614620   -0.5170239839    1.4505477135
     H     4.6453717261   -0.5388038125    2.2885384000
     H     5.5871423756   -0.8354137032   -0.0710716755
     H     3.3465326548   -0.6261092223   -1.7139424455
     H     2.0592945716   -0.1723344649    2.2280250678
     C    -0.5752916578   -4.2325252256   -1.2468218697
     C    -0.3903097017   -2.8833437181   -1.3913805995
     N    -0.3392677699   -2.2923113599   -0.1467624661
     C    -0.4879722155   -3.2509851429    0.7399818000
     N    -0.6360286410   -4.4548031934    0.1205618282
     H    -0.7705811028   -5.3459937214    0.5749952128
     H    -0.6661032576   -5.0383701937   -1.9591141212
     H    -0.2798756993   -2.2446938621   -2.2565650226
     H    -0.4917176256   -3.1132638825    1.8116882975
     C    -4.5573316951    0.6833085481   -0.3173998102
     C    -3.4647210112    0.5633715039    0.5008535497
     N    -2.3355006794    0.3424052869   -0.2554844416
     C    -2.7232797793    0.3260455086   -1.5174019020
     N    -4.0655492810    0.5284022551   -1.6030563517
     H    -4.6039100296    0.5632199693   -2.4558800425
     H    -5.6038728393    0.8585993675   -0.1190879081
     H    -3.4105620749    0.6189605573    1.5786758779
     H    -2.0232942309    0.1663787075   -2.3302951967
     F     0.0751371776    0.0576063636    1.9858510439
     F    -0.0821896987   -0.0719381460   -2.0707907931
