34
-1.1526662721724724e+03 frame 996   xyz file generated by TeraChem
    Fe    31.8413361630    0.0178142193   -0.4666742734
     C    31.5175559374    1.9412386609   -0.8123219750
     O    31.3281906392    3.0393309343   -1.0103498909
     C    33.9094798606   -0.2049535412   -0.1375587915
     O    35.0184593705   -0.3199558540    0.0468054891
     C    31.4059732910   -1.9233748532   -0.2088203689
     O    31.1619511520   -3.0185035645   -0.0625598022
     O  -111.6997180703    0.5820524982    0.5262805945
     C  -112.5085674718    1.3506027351    1.2948366456
     C  -113.8492831426    1.0771228392    1.0213619636
     C  -113.8493334597    0.0870805212    0.0313168168
     C  -112.5086445130   -0.1864611114   -0.2422315978
     H  -112.0147873420    2.0305549414    1.9747883897
     H  -114.7004064885    1.5484648694    1.4927092688
     H  -112.0149343723   -0.8664370929   -0.9222110953
     H  -114.7005033889   -0.3842241100   -0.4399848077
     O    43.3007128571   27.2659910165  138.1567697242
     C    43.0417598638   26.5088582090  139.2500979771
     C    43.7727628282   26.9646694538  140.3478639279
     C    44.5158719490   28.0596499404  139.8910882107
     C    44.1951866839   28.2083973593  138.5412044447
     H    42.3376905560   25.7001152237  139.1133608987
     H    43.7527043568   26.5403946438  141.3420064715
     H    44.5119290809   28.9041202304  137.7769394362
     H    45.2038912226   28.6785406062  140.4500043965
     O    40.8227842241  -27.6546892828 -138.3582872494
     C    40.2658667327  -27.0977005236 -139.4602165894
     C    40.8156503739  -27.6473941659 -140.6190567524
     C    41.7583599302  -28.5901231711 -140.1916752376
     C    41.7293784307  -28.5612428728 -138.7967436840
     H    39.5117426401  -26.3435927730 -139.2837691474
     H    40.5504999096  -27.3821711650 -141.6330135154
     H    42.2701988077  -29.1021115717 -138.0328920430
     H    42.3910558354  -29.2227658770 -140.7985064214
