35
-7.8229379351784155e+02 frame 81   xyz file generated by TeraChem
    Mn    -0.0005127992    0.0002824933   -0.0113566666
     N    -0.2349495696    2.2932143507    0.4284848962
     H    -1.1786724047    2.6230090815    0.6389114595
     H     0.3349804463    2.5777277886    1.2279172455
     H     0.0771523798    2.8613490184   -0.3613789985
     N     2.2662678397    0.4618634573   -0.4365106990
     H     2.7403580186    0.8147771396    0.3969257803
     H     2.8319882167   -0.3268359819   -0.7548442134
     H     2.3785761621    1.1805632116   -1.1541153331
     N     0.2331606888   -2.2926474157   -0.4518801538
     H     1.1743739441   -2.6209615979   -0.6755764590
     H    -0.0653443656   -2.8591395589    0.3444451015
     H    -0.3480440582   -2.5810712480   -1.2417019331
     N    -2.2676934710   -0.4607622815    0.4131296552
     H    -2.7415339370   -0.8104145026   -0.4218207198
     H    -2.3809967606   -1.1818911482    1.1281383703
     H    -2.8329543305    0.3272702136    0.7338909564
     C     0.1532548042   -0.2032655833    4.4528821802
     C    -0.3496596311    0.1954386767    3.2447124758
     N     0.4070920480   -0.3461167169    2.2145246497
     C     1.3571235295   -1.0637092153    2.8092187096
     N     1.2346021941   -1.0004157791    4.1529323540
     H     1.8365682136   -1.4616717738    4.8253975447
     H    -0.1513476292    0.0019190731    5.4679169195
     H    -1.2012492376    0.8327165287    3.0574292553
     H     2.1352565146   -1.6288501418    2.3167628237
     C    -0.1543051385    0.2020994661   -4.4757514037
     C     0.3479008319   -0.1971085743   -3.2674529658
     N    -0.4075082348    0.3465981574   -2.2374515477
     C    -1.3560810339    1.0659543499   -2.8323289499
     N    -1.2338699088    1.0017475382   -4.1760344926
     H    -1.8348559723    1.4640566817   -4.8486460576
     H     0.1497254926   -0.0042301186   -5.4907245524
     H     1.1980143033   -0.8362787555   -3.0799448671
     H    -2.1328963656    1.6330871424   -2.3400998607
