17
-7.2033955939198813e+02 frame 98   xyz file generated by TeraChem
    Fe    -0.5546866066   -0.7062400827    0.4580431862
     C    -1.3619223555    0.7150750223   -1.0162325958
     N    -1.7356982892    1.4632037554   -1.8450743462
     C     1.6104992364   -0.3538298562   -0.5926006237
     N     2.5981501781   -0.1274699246   -1.1965126360
     C    -0.4890957227   -2.8030735191   -0.2113229270
     N    -0.4496503264   -3.9276605271   -0.5502569440
     C    -2.6221603172   -1.0511289422    1.5071324309
     N    -3.6616097725   -1.2240359496    2.0323931752
     C     0.2830453922    0.1020694602    2.3297659065
     N     0.7297020645    0.5099981686    3.3372972156
     C     1.3244292338    1.5531742852   -4.9840175742
     N     1.6949408297    2.1490722026   -5.9154379884
     C     0.8599604932    0.7955953300   -3.8300958921
     H     0.5396917830   -0.2034630103   -4.1471808133
     H     0.0016979852    1.2713776219   -3.3288548383
     H     1.6426383626    0.6567091136   -3.0637475202
