11
-2.7885956499790609e+03 frame 24   xyz file generated by TeraChem
    Fe     0.0024927746    0.0027078187    0.1506490132
     C    -0.0415655532    2.2169928858   -0.2007397290
     S    -0.0719308019    3.7169050729   -0.4383256613
     C     2.2164413051   -0.0251947039   -0.2031048683
     S     3.7161996984   -0.0434170838   -0.4428566853
     C     0.0381514376   -2.2129667501    0.4987176329
     S     0.0638532337   -3.7137294013    0.7316940949
     C    -2.2132032804    0.0207836035    0.4995920223
     S    -3.7141489205    0.0329841042    0.7324812566
    Cl     0.3597847075    0.3607266132    2.3884574069
    Cl    -0.3560724942   -0.3557890501   -2.0885340262
