29
-1.1259937175440075e+03 frame 226   xyz file generated by TeraChem
    Mn    -1.5934877780    0.2444965236   -0.2618734398
     C    -2.3999499704    3.2622379486   -0.2811462189
     O    -1.8984178684    2.1891329975    0.1963389418
     O    -3.2111702536    3.0267003062   -1.3689729447
     H    -3.2488905306    2.0507596822   -1.5432706243
     C     1.3046159778   -0.6965526091   -0.9856048003
     O     0.2331050713   -0.0224796372   -1.1648803476
     O     1.1939228677   -1.6514557216   -0.0088451420
     H     0.2808867557   -1.6319269857    0.3825625161
     C    -2.1883262777   -1.9792223078    1.9167790274
     O    -1.5047290881   -1.1753845350    1.1589676930
     O    -3.4119209961   -2.2594909208    1.4380483026
     H    -3.5886687126   -1.8480258720    0.5279640515
     C    -3.8725338068   -1.0761492778   -1.3326022787
     O    -3.0146619855   -0.2405686539   -1.7569184026
     O    -4.7905677056   -1.3841433327   -2.2982585174
     H    -4.5252103134   -0.8524463404   -3.0911940363
     H    -0.4084687190   -1.9677816217    3.3351463457
     H     0.4218134292   -0.4148506805    3.6002683951
     C     0.5740461275   -1.4937146864    3.4992828467
     N     1.2111986970   -1.9952438418    4.6792143786
     C     1.7208969547   -2.4137990297    5.6520782962
     H     1.2073648290   -1.6759025371    2.6262698608
     H     1.1699108394    1.0787499963   -3.8518741538
     H     2.2844867879    0.5360141542   -2.5756523524
     C     2.0337412872    1.3729434697   -3.2497842265
     N     3.1239241437    1.7205632984   -4.1095712788
     C     4.0274570728    1.9917216891   -4.8109964173
     H     1.7543482956    2.2355030390   -2.6387765010
