61
-1.2954739386117608e+03 frame 44   xyz file generated by TeraChem
    Cr    -0.0753174558   -0.0779901204   -0.0789955925
     O     0.0014126906    2.1084421912   -0.0791290704
     C     1.2335079941    2.8769204623   -0.2778444998
     C    -1.1018670089    3.0476139180    0.1597794718
     H    -1.9811363932    2.4796843201    0.4451755580
     H    -1.2914863059    3.6137718460   -0.7562658233
     H    -0.8163569803    3.7306071634    0.9637246489
     H     2.0116807579    2.1763931852   -0.5567748385
     H     1.4916285492    3.3917777959    0.6517124321
     H     1.0753672146    3.6122657124   -1.0711615209
     O     2.1201656354   -0.0875279126   -0.0268477045
     C     3.0605071324   -0.2436838890   -1.1430641997
     C     2.8929140776    0.0781262650    1.2071559052
     H     2.1917202071    0.0182762363    2.0296554698
     H     3.3992187857    1.0465315633    1.1900304996
     H     3.6314944092   -0.7246915140    1.2768574791
     H     2.4917488917   -0.2592219133   -2.0657202056
     H     3.6110157132   -1.1794584948   -1.0146472243
     H     3.7594949762    0.5971130612   -1.1410023120
     C    -0.1776084630   -4.9455590876    0.3343794300
     C    -1.3453074002   -4.2336851191    0.0480205489
     C    -1.2870120281   -2.8527914688   -0.0858837484
     N    -0.1267494844   -2.1533592621    0.0519838898
     C     1.0070932457   -2.8549925187    0.3212333247
     C     1.0178289450   -4.2354711529    0.4675900604
     H    -0.1980882892   -6.0257970321    0.4463814774
     H    -2.2987074331   -4.7382571011   -0.0716651450
     H    -2.1765647761   -2.2863738960   -0.3174553122
     H     1.9138845330   -2.2785454049    0.4128939000
     H     1.9541998444   -4.7399128295    0.6834886831
     C    -4.9521943404    0.3248604385   -0.1873760522
     C    -4.2581642136    0.2426210687    1.0225087353
     C    -2.8761167305    0.1213236398    1.0040591687
     N    -2.1536742142    0.0771627428   -0.1491400860
     C    -2.8374613522    0.1554864239   -1.3231498684
     C    -4.2202785789    0.2795345057   -1.3755410763
     H    -6.0340369282    0.4206881560   -0.2028097317
     H    -4.7767181574    0.2716017367    1.9754829531
     H    -2.3077233786    0.0618875768    1.9179631510
     H    -2.2631763029    0.1070722459   -2.2352371479
     H    -4.7099222699    0.3367078159   -2.3423974018
     O    -0.0883156537   -0.0243087030    2.1026682792
     C     0.0827433243    1.2049479870    2.8836853362
     C    -0.3136722471   -1.1431757226    3.0275589110
     H    -0.6095412179   -2.0109000892    2.4469349684
     H    -1.1058054829   -0.8681876649    3.7289581375
     H     0.6106211115   -1.3422714384    3.5764365305
     H     0.3769840099    1.9858237828    2.1924264891
     H     0.8569790466    1.0468698031    3.6386513278
     H    -0.8628343303    1.4559654685    3.3722996088
     C     0.3454740216   -0.1622698476   -4.9538147377
     C     0.2005888488    1.0422059407   -4.2608972888
     C     0.0650307214    1.0183258052   -2.8798930769
     N     0.0709445167   -0.1358804345   -2.1583674730
     C     0.2070045770   -1.3056194578   -2.8414666569
     C     0.3441314142   -1.3523774843   -4.2229050474
     H     0.4530617418   -0.1728091186   -6.0346295739
     H     0.1880518902    1.9953775747   -4.7797351795
     H    -0.0709186071    1.9273413101   -2.3160110284
     H     0.2077670598   -2.2179114534   -2.2649413963
     H     0.4478401420   -2.3154887438   -4.7122733070
