13
-6.3595798909212090e+02 frame 39   xyz file generated by TeraChem
    Fe     0.2671416793    0.3095860569    0.0252911799
     F    -0.0278167512    2.1061637145   -0.2432130760
     F     2.0664487377    0.5771980977    0.2871567395
     F     0.5064203470   -1.6247840594   -0.0021255879
     F    -1.6680004361    0.0040547898    0.0575826119
     N    -0.1210612000   -0.0224083688    2.1667781482
     H    -1.1364079577   -0.0000825483    2.0800661755
     H     0.2021790580   -0.9863878607    2.2198472989
     H     0.2356069263    0.5465109933    2.9301456387
     N    -0.0074647162   -0.1259176481   -2.1131756291
     H    -1.0237470268   -0.0600996688   -2.1369794512
     H     0.4296721655    0.3789337400   -2.8800732198
     H     0.2770333404   -1.1027692142   -2.0622006312
