19
-2.2035644899813369e+03 frame 123   xyz file generated by TeraChem
    Cr    -0.7368323486   -0.7067216851    1.8077490212
     S    -1.6831474242    2.8860693186   -0.8466480605
     C    -0.5283738826    3.6286014036   -1.8201159726
     N     0.2566470374    4.1729136608   -2.5079479697
     S     1.7073039829   -1.0713850287    2.0799301407
     C     2.2687206891    0.3003120147    2.8998179888
     N     2.7214077116    1.2201949477    3.4674489606
     S    -1.8534483008   -3.4061233547    1.3273268192
     C    -1.7984941435   -4.0003976729   -0.2515980349
     N    -1.7750974450   -4.4652836122   -1.3302438038
     O    -2.7717242501   -0.4262553233    1.4269462750
     H    -2.9855423384   -1.3715411975    1.2094071584
     H    -3.2850216652   -0.2322984745    2.2429526248
     S    -1.1201482327   -1.0177985463    4.2909797325
     C    -2.7430835929   -0.5824553760    4.3508862691
     N    -3.8773927349   -0.2687018939    4.3235273432
     O    -0.4419914677    0.0894583398   -0.0759787644
     H     0.5102132778    0.2500403831   -0.1920829510
     H    -0.8919447496    0.9608744612   -0.3328991702
