28
-1.9949112591319454e+03 frame 101   xyz file generated by TeraChem
    Fe    -0.0661544272   -0.3146651172    0.4318991602
     C    -0.3776292094    2.7879826856   -0.5531577296
     N    -0.4102272091    1.8339607348    0.1013467437
     C    -0.3216768493    3.9532363993   -1.4232016725
     H     0.2333745789    3.6654119137   -2.3229986413
     H     0.1816728939    4.7841778717   -0.9201097038
     H    -1.3344873882    4.2602008876   -1.7013216001
     C     2.9883824774    0.2338969405   -0.5858723248
     N     2.0851774529   -0.0757332233    0.0684102942
     C     4.0853154720    0.6297884304   -1.4563323884
     H     4.7702798369    1.3020557352   -0.9311920038
     H     3.6487380134    1.1350422909   -2.3249719228
     H     4.6339901686   -0.2563913602   -1.7896159431
     S    -0.3430937790   -2.9085368485    0.8338504549
     C    -0.0774799516   -3.1541922712    2.4699892890
     N     0.1122591534   -3.3217608240    3.6156938759
     S    -2.6085662427   -0.8973806033    0.8395652070
     C    -2.8747774865   -0.6547414744    2.4758934508
     N    -3.0577601172   -0.4797378457    3.6217189334
     C     0.1187999442   -0.1327882604    3.6961871404
     N     0.2331460331   -0.0079481759    2.5510950568
     C    -0.0632959970   -0.3298257133    5.1252154705
     H     0.1907594827   -1.3683180178    5.3604894700
     H    -1.1191509869   -0.1599664822    5.3592328747
     H     0.5687921957    0.3560991930    5.6964636194
     S    -0.4435745349   -0.7586631640   -2.0007700351
     C     0.5018791342    0.4803136037   -2.6269478359
     N     1.1726048239    1.3593097239   -3.0253762773
