20
-7.4597799344369548e+02 frame 109   xyz file generated by TeraChem
    Fe    -0.2991531018    0.1974077539    0.6094964637
     N    -0.5703475086    1.1589804873   -1.3595681101
     H    -0.1179221582    2.0756980442   -1.2517570603
     H    -1.5691436000    1.3772188257   -1.2631680183
     N     1.8040656546    0.5208584440    0.3520974090
     H     1.8865816758    0.3892928176   -0.6647790423
     H     1.8099524117    1.5491536513    0.4184825258
     N    -0.0825495702   -1.8137912503    0.6715194115
     H    -0.7552835821   -2.1579511620    1.3660554360
     H     0.8339212975   -1.9427933768    1.1176104147
     N    -2.4538885419    0.0399446164    0.5218802761
     H    -2.7001351480   -0.5436034961    1.3343111560
     H    -2.5096163908   -0.6435194650   -0.2484806219
     N    -0.3102339383    1.2484477433    2.3354850794
     H     0.4163792746    0.7960946403    2.9051389612
     H    -1.1889093961    0.9901134226    2.7996013061
     P    -0.2714576299    0.6706664868   -3.5264770829
     H    -0.5258902663   -0.6545133377   -3.0908983609
     H     0.2089661200    0.0407956575   -4.9193161039
     H     1.1055188472    0.7642574652   -3.1788290922
