17
-1.8726835461984329e+03 frame 110   xyz file generated by TeraChem
    Fe    -0.0307575723    0.0159786074    0.5822440877
     S     0.2060944450    2.8579242661   -0.1043388324
     H     0.1404586323    1.9483080824   -1.1324210620
     H    -1.1106823524    3.1515606872   -0.1579000223
     S     2.8141897534    0.2282874817    1.2697075008
     H     3.0967762788   -1.0905847656    1.3310265112
     H     1.9032805014    0.1757188794    2.2972358928
     S    -0.2704799739   -2.8298101921    1.2730297001
     H     1.0456416024   -3.1251578171    1.3332250574
     H    -0.2067976089   -1.9120277726    2.2950352578
     S    -2.8784371228   -0.2062644034   -0.1111854241
     H    -1.9585962948   -0.1512202877   -1.1319682763
     H    -3.1662464432    1.1113171622   -0.1764647311
     O     0.0248384785   -0.0436999385    2.4953299113
     H    -0.5661336860    0.5420185457    2.9900141343
     O    -0.0907028027    0.0718360394   -1.3311544489
     H     0.4938937497   -0.5201658388   -1.8259428507
