19
-2.0212948661995006e+03 frame 189   xyz file generated by TeraChem
    Co     0.0621333866   -0.0951181315   -0.3485076531
     C     0.7960887573    2.8119257007   -0.6495966846
     O     0.4517534551    1.9562779914    0.1647008967
     O     0.9628687877    2.6298048215   -1.9328401993
     H     0.7775076655    1.6582256809   -2.1544370329
     C     2.9766735078   -0.9734149037    1.2066759634
     O     2.5606302464   -0.1187141013    0.4692633935
     O     2.4321302399   -2.1040312000    1.5929588006
     H     1.5514986301   -2.2034479862    1.1318019559
     C     0.2236838307   -2.0226556506   -0.4654154324
     S     0.1296827413   -3.4367743339   -1.1336812186
     C    -1.7996858594   -0.0438804957   -0.4206580339
     S    -3.3266144339   -0.1664705424   -0.6577454506
     C     0.3582523151    0.9563472344    2.9035551603
     O     0.0720302411   -0.0081378471    2.2982741764
     O     0.6427106146    1.8996061636    3.5252879965
     H     0.9932484427    3.8457943555   -0.3430325432
     C     0.4298053217   -0.1813928773   -2.2925292269
     S     0.5308517172   -0.8934748235   -3.6867935395
