35
-8.9111107096263606e+02 frame 106   xyz file generated by TeraChem
    Fe     0.0004547737    0.0022334020    0.0197855054
     C    -1.1034168070    2.9372762391   -0.1892889814
     O    -0.1635384596    2.1664022990   -0.0193322714
     H    -0.9385502651    4.0228295253   -0.1558846996
     H    -2.1194459186    2.5640529229   -0.3780386332
     C     2.9821980916    0.9778527091    0.4403942228
     O     2.1221529104    0.1085438967    0.3558674105
     H     2.7285298347    2.0441786798    0.3522423843
     H     4.0319979872    0.7018670698    0.6087361348
     C     1.1044111396   -2.9328933805    0.2276417378
     O     0.1643871318   -2.1619836117    0.0586396283
     H     0.9395440908   -4.0184416239    0.1940864432
     H     2.1205903514   -2.5597079941    0.4156554034
     C    -2.9809042813   -0.9734595185   -0.4013736310
     O    -2.1210473471   -0.1039724686   -0.3166112057
     H    -4.0306427175   -0.6976811369   -0.5704064533
     H    -2.7271019549   -2.0397075416   -0.3127376345
     O    -0.3368378383    0.0053152205    2.1241375401
     C     0.0356567361    1.0886006534    3.0074234948
     C    -0.9943555386   -1.0587763651    2.8510613659
     H    -1.2266465276   -1.8469337562    2.1365143598
     H    -1.9112870424   -0.6792822070    3.3128035837
     H    -0.3235529493   -1.4464255702    3.6242001920
     H     0.4944778766    1.8657329397    2.3980793087
     H     0.7439894681    0.7280361776    3.7600474679
     H    -0.8571635989    1.4856966490    3.5009273816
     O     0.3381807818   -0.0009031408   -2.0847183775
     C    -0.0334856524   -1.0845659344   -2.9678655602
     C     0.9959669431    1.0630454256   -2.8115874707
     H     1.2276920737    1.8514633511   -2.0971462941
     H     0.3255708598    1.4503210380   -3.5852647562
     H     1.9132522581    0.6835782901   -3.2726605581
     H    -0.4935154812   -1.8611426784   -2.3587266739
     H     0.8598464685   -1.4823116172   -3.4599287629
     H    -0.7406543458   -0.7241662207   -3.7216625481
