51
-1.8779108996591153e+03 frame 168   xyz file generated by TeraChem
    Cr     1.4340661391    1.4280570767    0.9534739375
     C     1.0894508899    6.3076800354    0.2874361845
     C     2.3079428651    5.7274461730    0.6437969945
     C     2.3741894231    4.3481691691    0.7971242302
     N     1.3026215363    3.5392232618    0.6269302810
     C     0.1242110940    4.1109705845    0.2893292759
     C    -0.0199576807    5.4809571633    0.1051063485
     H     1.0069614418    7.3819587360    0.1536138634
     H     3.1971584250    6.3293170180    0.7977653118
     H     3.3077045141    3.8606228628    1.0576425013
     H    -0.7226806496    3.4459101392    0.1584745621
     H    -0.9860523648    5.8864548340   -0.1756042240
     C     5.5724648074    1.4179875951   -1.7471321481
     C     5.5655246668    0.9329347773   -0.4383637043
     C     4.3693287967    0.9287555871    0.2691576662
     N     3.2081807999    1.3875232781   -0.2525758092
     C     3.2263517264    1.8645175811   -1.5183003797
     C     4.3782123345    1.8893249628   -2.2954964420
     H     6.4898629324    1.4290237867   -2.3276951195
     H     6.4695083885    0.5593581726    0.0306828404
     H     4.3237040648    0.5409485893    1.2818083404
     H     2.2845576282    2.2403681687   -1.9050681061
     H     4.3357981545    2.2753089468   -3.3084432866
     C     2.2985772114   -3.2929911236    2.1133861931
     C     2.2355970789   -2.8736555550    0.7832504496
     C     1.9774749190   -1.5356020024    0.5115442873
     N     1.7729247605   -0.6184492529    1.4847504245
     C     1.8311970203   -1.0348726107    2.7708639476
     C     2.0949790690   -2.3526053280    3.1243134230
     H     2.5027011162   -4.3311605918    2.3570987479
     H     2.3873052319   -3.5696614680   -0.0349012506
     H     1.9345815393   -1.1744786850   -0.5103074772
     H     1.6539538427   -0.2772270566    3.5262676873
     H     2.1371208709   -2.6304102633    4.1720106691
     S    -3.6118524937   -0.9737721419   -0.1454436062
     H    -3.8005314983   -2.1588999287   -0.7596629592
     H    -4.6537118239   -0.3827114156   -0.7642563731
     C    -2.0893831743    1.7389914579    4.3832662956
     C    -2.1418260481    0.7654873477    3.3843171328
     C    -1.1241312968    0.7209783524    2.4395241453
     N    -0.0898378438    1.5933964246    2.4352605012
     C    -0.0474222520    2.5355320410    3.4057439248
     C    -1.0188533635    2.6350951666    4.3947611178
     H    -2.8665529465    1.7975638750    5.1391851922
     H    -2.9535594993    0.0479768579    3.3309808305
     H    -1.1202023064   -0.0319655915    1.6588125821
     H     0.7908545855    3.2241906847    3.3786545774
     H    -0.9347493705    3.4035686957    5.1557278879
     S    -0.4274377735    0.9279698891   -1.4686904230
     H     0.0497281444   -0.0002115513   -2.3224574035
     H    -1.5308265355    0.2027186844   -1.1365407097
