19
-1.2075509471910880e+03 frame 251   xyz file generated by TeraChem
    Mn    -2.1241522063   -0.9021454500   -0.4376383734
     O    -2.2161209868    0.8065404382   -1.6449851173
     H    -1.7572388569    0.9493727203   -2.4960769163
     H    -2.7461586307    1.6120658537   -1.4855165013
     O    -0.6932229421   -0.5877769662    1.0479618433
     H    -0.2128605782   -1.2716536127    1.5542333849
     H    -0.3350759015    0.2720808439    1.3435241877
     O    -1.5204002571   -2.6269871779   -1.4451938438
     H    -0.6493384986   -2.8044936266   -1.8513273194
     H    -2.0649122333   -3.4204430866   -1.6160649281
     O    -3.9960681398   -1.2188661813    0.4352685017
     H    -4.1684736815   -1.3391482550    1.3896288240
     H    -4.8671168459   -1.2364070255   -0.0070139487
     S   -17.4639609657   -9.6176927089   67.9861512679
     H   -17.7823470088  -10.2986576602   66.8606180316
     H   -18.7277148779   -9.6715997072   68.4676591430
     S    20.1118176475   10.7886212562  -65.6613770799
     H    20.9538879746   11.6797454783  -66.2346220653
     H    19.9043192500   10.1226948381  -66.8212218528
