37
-7.5643705571102464e+02 frame 188   xyz file generated by TeraChem
    Fe    -1.3022283785   -0.6873436375    0.4396301987
     O    -0.9498255239    2.9695702174    0.0177158749
     C    -0.3581073658    4.2392361631    0.0686716516
     C    -2.2879964885    2.9867402363   -0.4416888717
     H    -2.6674686073    1.9578015332   -0.3761051059
     H    -2.3468124577    3.3517463194   -1.4843949515
     H    -2.9110972698    3.6535418043    0.1833374764
     H     0.6517686544    4.1047455330    0.4669191520
     H    -0.9176731951    4.9292651606    0.7279857446
     H    -0.2983072920    4.7121043566   -0.9306110021
     O     2.7279167461    2.6671223184    1.0972415714
     C     3.6866360918    3.1287271097    0.1829450920
     C     2.2075225888    1.3907745789    0.7221116737
     H     1.4704563593    1.0631762717    1.4624209000
     H     3.0212300194    0.6478692838    0.6635101613
     H     1.7072453008    1.4457578939   -0.2556134553
     H     4.0413577415    4.1052712612    0.5325454138
     H     3.2702065271    3.2468340927   -0.8331075686
     H     4.5519896154    2.4446716226    0.1115034142
     O     1.4148543085   -5.3792098278   -0.5039094465
     C     2.4507433111   -6.3213331769   -0.5012558600
     C     1.8628987748   -4.0785243060   -0.8628636120
     H     1.0146015727   -3.3794787337   -0.8289203180
     H     2.2954506630   -4.0828661106   -1.8798348510
     H     2.6417824848   -3.7269001579   -0.1641103839
     H     2.0225678964   -7.2884675311   -0.2142827260
     H     3.2482680064   -6.0614198597    0.2187520107
     H     2.9231309226   -6.4269466999   -1.4960476759
     N    -3.1973047497   -0.2591950933    0.0772328097
     H    -3.6265250207   -0.8366708305   -0.6497862902
     H    -3.8109077200   -0.3423365029    0.8913062514
     N    -0.4196760336   -0.3187240998    2.1561182043
     H    -0.8967746579    0.3556681725    2.7580738272
     H    -0.2709716819   -1.1513878510    2.7307492344
     N    -0.2322971110   -1.4339199316   -1.0413835005
     H     0.5046823473   -0.7920258315   -1.3437663413
     H    -0.7605781397   -1.6562797508   -1.8887896314
