13
-2.3054445468995727e+03 frame 62   xyz file generated by TeraChem
    Cr    -0.2942371506   -0.3714704342   -0.8599393035
    Cl     0.1125384884    2.0779954072   -0.5021163635
    Cl     2.2491128625   -0.7394887081   -1.2667783539
    Cl    -0.7161584353   -2.8196977532   -1.2252735673
     C    -3.2706644886   -0.2887245425    0.0676965790
     O    -2.2565227937   -0.0185818789   -0.6457193024
     O    -3.0375349471   -1.0178597004    1.2009985709
     H    -2.0548567421   -1.1546560613    1.3103308033
    Cl     0.0694760073   -0.8094215128    1.6787026980
     C    -0.1496683955    0.4194215330   -3.8500466809
     O    -0.6603572684   -0.0770330667   -2.7995929455
     O     1.1530937993    0.8245787591   -3.7695114633
     H     1.5340470544    0.5780835155   -2.8812099342
