25
-7.1538763704154803e+02 frame 359   xyz file generated by TeraChem
    Co   -13.2224325964   76.9820476997  -26.8935676849
     C   -13.7284892946   79.4109370008  -24.9778382412
     O   -13.2626146646   78.3693328681  -25.4407937209
     H   -13.3865952256   79.7659069563  -23.9972020747
     H   -14.4804981730   79.9991345742  -25.5219063666
     C   -10.1246151718   76.8763912426  -26.9950413648
     O   -11.2865211146   76.5944268969  -27.2892740531
     H    -9.3011711951   76.3432118127  -27.4868570718
     H    -9.8889005100   77.6498640005  -26.2509545121
     C    25.0877406928  -57.0999946534   -9.0405061194
     O    24.4510107094  -56.0970571855   -8.8556990844
     H    25.0383909970  -57.6391144926  -10.0094850926
     H    25.7435821815  -57.5154217763   -8.2472139599
     N   -13.9428595801   75.2605004595  -25.9737879391
     H   -13.7193635160   74.4074784842  -26.4966468332
     H   -13.5395443656   75.1254547977  -25.0406430643
     H   -14.9586873471   75.2453438132  -25.8380599086
     C   -10.0108303127  -24.1774913083   38.2247596676
     O   -10.0095854433  -23.3298474118   37.3720289844
     H    -9.6307518081  -25.1993105236   38.0167140208
     H   -10.3916738752  -23.9624651328   39.2448487771
     N   -13.9989543492   77.4357284691  -28.7640181747
     H   -13.5676922148   78.2641225761  -29.1874332656
     H   -13.8440300851   76.6762715094  -29.4358016341
     H   -15.0085510031   77.6119632694  -28.7747778263
