23
-2.4245452668636199e+03 frame 47   xyz file generated by TeraChem
    Fe     0.6128074616    0.1228789280    0.6667124527
    Cl    -0.5065133554    2.2787134660    0.2585473514
    Cl     2.9529749374    0.5568358931    0.2444109823
    Cl     0.2026367703   -2.0329248617   -0.4524073372
     O    -2.7466606584   -0.3777623993    0.1416802406
     C    -3.6944676697    0.5883402539    0.1859449251
     C    -4.9326479659    0.0336988632    0.0296951782
     C    -4.7176167571   -1.3809277125   -0.1225596102
     C    -3.3669249304   -1.5661397404   -0.0456532810
     H    -3.2992220757    1.5835488885    0.3266083483
     H    -5.8784025384    0.5613281351    0.0225989083
     H    -2.6939688205   -2.4081823176   -0.1089217125
     H    -5.4661648312   -2.1496008091   -0.2698323906
    Cl     0.1911456014   -0.3106230976    3.0068835974
     O     0.0790238972    0.6252325498   -2.6923345708
     C    -0.1098500910    1.8138269222   -3.3117620733
     C    -0.1976306214    1.6281875873   -4.6617559560
     C    -0.0509624638    0.2130521520   -4.8772758845
     C     0.1134631152   -0.3413641717   -3.6400129995
     H    -0.1659045902    2.6564601278   -2.6389286450
     H    -0.3488916486    2.3969821961   -5.4093957764
     H     0.2537731103   -1.3368540889   -3.2453024783
     H    -0.0674156430   -0.3151487013   -5.8226012073
