13
-2.7023390085863552e+03 frame 78   xyz file generated by TeraChem
    Fe     0.4735475334    0.1945324100   -0.3150230502
    Cl    -1.1346273489    1.7573428065   -0.3430408091
    Cl     2.6395957445    0.5938132863    0.0340206900
    Cl     0.0279055563   -1.9664751673   -0.7021372527
     S    -3.5862274337   -0.9545310900    1.5143929669
     H    -4.1512877999    0.1272596158    2.0909013435
     H    -3.2426600795   -0.2689517307    0.4030381933
     S     0.0937744590   -0.1065082651    2.3095818489
     H    -1.1997945315   -0.5293371427    2.2088258435
     H     0.5945758726   -1.3575832531    2.3881130569
     S     0.9002720447    0.6524108109   -2.9566578455
     H     1.6494941589   -0.4502693468   -3.1679971815
     H    -0.2270653150    0.0736652543   -3.4228136854
