21
-5.5678028700267987e+02 frame 50   xyz file generated by TeraChem
    Co    -0.0746052230   -0.0154756079   -0.0294680564
     N    -0.4460829027    2.1738033401    0.1467858447
     H    -1.4656976683    2.2407223932    0.1230412803
     H    -0.1286014822    2.6951928135    0.9649742414
     H    -0.1041604505    2.6529809993   -0.6881375343
     N     2.1831431032    0.2680254774   -0.0141436847
     H     2.3794799336    1.2686905843   -0.0705951225
     H     2.7306827542   -0.0976934972    0.7661410012
     H     2.5665694496   -0.1332737390   -0.8714717423
     N     0.0629741371   -2.1903701261   -0.4088443838
     H     0.9931386392   -2.6069645494   -0.4693054303
     H    -0.4908881488   -2.7416092309    0.2488758309
     H    -0.3759030615   -2.3040262486   -1.3250704542
     C    -2.0087667176   -0.3330052186    0.4027194722
     N    -3.1364098874   -0.5069989469    0.6662107819
     N     0.2641495451   -0.2405485744    2.1871423911
     H     0.8340615397    0.4661213094    2.6542654968
     H    -0.6658633456   -0.2013607926    2.6085333408
     H     0.6520167885   -1.1504939420    2.4414264270
     C     0.2034313260    0.2890306095   -1.9961272737
     N     0.3735593139    0.4673151393   -3.1407343922
