10
-2.8344302712377166e+03 frame 21   xyz file generated by TeraChem
    Co    -0.1169626185   -0.2629662911   -0.2993589497
    Cl    -0.4136169208    2.1843347939    0.2109487748
    Cl     2.1841340515   -0.5452078479   -0.5829412453
     C    -0.1077259452   -2.3716844213   -0.2301796171
     S     0.1509393931   -3.8757265554   -0.0998837221
     C    -2.3526954493   -0.1187915429   -0.1278439760
     S    -3.8521916470    0.0927899692    0.1013624173
    Cl    -0.3979781750    0.2640014178    2.1497891654
     C    -0.1184292454   -0.1937380924   -2.4064209185
     S     0.1342798224   -0.0632693939   -3.9113683585
