17
-1.1617035165822431e+03 frame 174   xyz file generated by TeraChem
    Mn     1.0387016608   -2.0127438499    0.1187919128
     C     0.7637771443   -0.7336298252    1.8644305609
     N     0.6214530814   -0.0476395021    2.8044051238
     C     3.1476861501   -2.3150921062   -0.2295669848
     N     4.2930943105   -2.4827968272   -0.4181877780
     C     0.0453575073   -3.9004617670    0.4507658691
     N    -0.4913481600   -4.9276219326    0.6311303501
     C     0.1395184350   -1.0351470430   -1.6089103825
     N    -0.3475535626   -0.5180554923   -2.5416076377
     P     0.7923573246    2.0635017927    5.7003761139
     H     1.7064288520    1.2130522174    6.3919212744
     H     0.6969493126    1.2214161421    4.5450877934
     H     1.8349046752    2.8790849309    5.1667938499
     P    -2.2040578725    0.3340685691   -5.4916634860
     H    -3.4114968691   -0.2564839023   -5.0124842631
     H    -1.8144040329   -0.8461634963   -6.1930172028
     H    -1.4476486425    0.0270859322   -4.3142247576
