15
-6.0921093422520414e+02 frame 43   xyz file generated by TeraChem
    Mn    -0.0520131043   -0.0221840375    0.1529291538
     O    -0.0511001377    2.2467634904    0.3730931761
     H    -0.5663623213    2.6188338284   -0.3647695323
     H    -0.3817698927    2.6778814001    1.1792986497
     O     1.9900299321    0.2947179638    0.0182625453
     H     2.4047644612   -0.2063909019   -0.7071460926
     H     2.1651935273    1.2417285287   -0.1405325687
     O     0.5351491394   -2.1672405161   -0.3827333145
     H     0.1164880086   -2.3122167629   -1.2507559211
     H     0.2793271320   -2.9353376529    0.1556182075
     F    -1.7191385782   -0.3044356232    0.4997065474
     O     0.2703705208   -0.2347058343    2.1729633924
     H    -0.4945279666   -0.5695632965    2.6734280505
     H     1.0946144984   -0.5645448282    2.5686129766
     F    -0.2793715662    0.2358699634   -1.5386324918
