35
-1.3400419415471324e+03 frame 86   xyz file generated by TeraChem
    Fe     0.3535428900    0.1331694317   -0.0663595452
     C    -0.3688660773    3.2772132475   -0.5812884593
     O     0.2642198231    2.3157297788   -0.0584329456
     O    -1.6898468712    2.8990190085   -0.9254252100
     H    -1.8232540134    1.9852497892   -0.5665213599
     C     3.2618021541   -0.4382558222   -0.9124069461
     O     2.2768877378    0.2094064610   -0.3845578795
     O     3.0072898372   -1.7759696646   -1.0127205226
     H     2.1130415038   -1.9714726355   -0.6041468502
     C     0.3761613267   -2.9739963499    0.8695496403
     O     0.4260732487   -2.0323431071   -0.0080774172
     O    -0.7381443798   -2.8928571991    1.6688953879
     H    -1.3758836591   -2.1617991155    1.3651191854
     C    -2.4673356765   -0.6863678411    0.7831050412
     O    -1.7653390266    0.1295354215    0.1185553815
     O    -3.7908188321   -0.3205448326    0.7883103349
     H    -3.8427741601    0.5158687223    0.2607771118
     O     0.4212234709    0.4737432443    2.3983381700
     C     0.3751438539   -0.3994517581    3.4490000542
     C     0.6609229918    0.2690179471    4.5994367826
     C     0.9021446339    1.6400185627    4.2303583907
     C     0.7436971506    1.7111718896    2.8808089014
     H     0.1106648136   -1.4154185835    3.1862740177
     H     0.6951333976   -0.1600083412    5.5926516075
     H     0.8079513136    2.4724429486    2.1169504266
     H     1.1597002468    2.4619053887    4.8860337069
     O    -0.2926510092   -0.0589376370   -2.4316969498
     C    -1.0401006076    0.7337726055   -3.2580456215
     C    -1.2328520174    0.0929126424   -4.4429125508
     C    -0.5615457375   -1.1762485724   -4.3387095896
     C    -0.0099827464   -1.2182585849   -3.0963102595
     H    -1.3408251608    1.6815281658   -2.8309363596
     H    -1.7876289991    0.4754124626   -5.2900242213
     H     0.5741093500   -1.9278738396   -2.5310386516
     H    -0.5006938321   -1.9528426398   -5.0898750894
