31
-6.5345896634204144e+02 frame 60   xyz file generated by TeraChem
    Cr     0.0048010955   -0.0773542591    0.0741385017
     C    -0.5179934731    2.7533976825   -1.3357371780
     N    -0.3524661909    1.7232766539   -0.8212456986
     C    -0.7295419572    4.0373046139   -1.9756306039
     H    -0.9704573171    3.8906191009   -3.0364209544
     H     0.1788703741    4.6478315060   -1.8945288855
     H    -1.5602350701    4.5645269817   -1.4888983060
     C     3.1648277675    0.3452237640   -0.3284532138
     N     2.0191576486    0.2015247511   -0.1875047209
     C     4.5934071463    0.5251982834   -0.5037800241
     H     4.8255744100    1.5926321102   -0.6074953207
     H     4.9279954179   -0.0039267426   -1.4051787508
     H     5.1285280749    0.1241825893    0.3663479070
     C     0.5131192555   -2.9001889862    1.4900190414
     N     0.3045511940   -1.8774287911    0.9756608451
     C     0.7682070463   -4.1746320447    2.1319894839
     H     1.8492726975   -4.3205790578    2.2528452651
     H     0.3619515353   -4.9893203087    1.5184981904
     H     0.2892828095   -4.1973359522    3.1194862286
     N    -2.0664472072   -0.3792403509    0.3128277696
     H    -2.3980009200   -1.2567569181   -0.1023157420
     H    -2.3443215034   -0.4340950718    1.2984212949
     H    -2.6381248074    0.3655516080   -0.1002612088
     N     0.0907199884    0.9314533434    1.9312876233
     H    -0.6366214160    1.6397584253    2.0730694430
     H     0.0473450293    0.2982842045    2.7361572603
     H     0.9837727168    1.4268183319    2.0204007073
     N    -0.0800831971   -0.9847437634   -1.8367493757
     H    -0.9418567219   -0.8188792863   -2.3672183841
     H     0.6783682014   -0.6389419996   -2.4329459963
     H     0.0393271847   -2.0016889943   -1.7907892001
