35
-2.2171340370545845e+03 frame 89   xyz file generated by TeraChem
    Fe     0.0024909004    0.0020827153    0.0771394910
     S     0.3295785390    2.7060692233   -0.3977717558
     H     1.2979886811    2.7449162946   -1.3362421513
     H     1.1305582736    3.1596585957    0.5889271660
     S     2.7141468191   -0.5144690153   -0.1723854062
     H     3.0389510044   -0.2495725363   -1.4550349158
     H     3.3014149181    0.6003058869    0.3094409545
     S    -0.3245026425   -2.7360882514    0.3722160991
     H    -1.5090404614   -2.9836468404   -0.2240806303
     H    -0.8031553613   -2.9191546501    1.6204560609
     S    -2.6763731722    0.5181137368    0.5164983359
     H    -3.3416008613   -0.2350211677   -0.3841608614
     H    -2.9780247583   -0.2852470300    1.5576612199
     C     0.7804072542    0.6166237690    4.9369370670
     C    -0.0476708210    1.4908773748    4.2299519958
     C    -0.2408037931    1.2813791317    2.8701972376
     N     0.3375965094    0.2601081460    2.1934940979
     C     1.1367728302   -0.5834283410    2.8898657190
     C     1.3823477788   -0.4392918027    4.2500132762
     H     0.9522234460    0.7549372008    6.0000317412
     H    -0.5384603418    2.3251473041    4.7200159497
     H    -0.8796913401    1.9486876076    2.2988825689
     H     1.5921729548   -1.3983259535    2.3348271843
     H     2.0332243272   -1.1446682914    4.7557854013
     C    -0.8051955527   -0.5911564415   -4.7782231362
     C     0.0278902359   -1.4695808739   -4.0825000440
     C     0.2337043127   -1.2663263002   -2.7235981681
     N    -0.3406608325   -0.2498175697   -2.0366541506
     C    -1.1472300940    0.5963092585   -2.7215390846
     C    -1.4017230860    0.4610910011   -4.0808522463
     H    -0.9851519460   -0.7234573227   -5.8407381827
     H     0.5133711128   -2.3021425098   -4.5806727002
     H     0.8746997212   -1.9380657332   -2.1603157184
     H    -1.5948939284    1.4103078725   -2.1586719745
     H    -2.0551187466    1.1702717449   -4.5779857257
