12
-6.0199051492774595e+02 frame 879   xyz file generated by TeraChem
    Fe     3.9061559217   -1.6871459446 -141.0320174602
     O     2.1943371374   -0.8910064351 -140.6675925131
     H     2.5581839269   -0.0783932382 -140.2751801809
     O     4.6309590268   -0.1190796074 -140.2614905215
     H     5.5188804845   -0.4295732733 -140.0170703200
     O     5.4784698795   -2.6117598936 -140.3802956885
     H     4.9980550804   -3.4557782589 -140.3273148340
     O     3.0648431412   -3.3827159432 -140.9607685466
     H     2.1270405647   -3.1380420918 -140.8956867780
     O    -2.3283401038    0.9756021860   79.8129597719
     H    -2.2096853495    0.8570741061   78.8395563606
     F     4.2037680736   -1.4114569207 -142.8696509312
