43
-1.0362257783435261e+03 frame 216   xyz file generated by TeraChem
    Fe    -1.2808090208   -0.3135755185    0.4425613747
     C     1.5546252270    3.9060101786   -1.9719448394
     C     0.8664945796    3.3974184759   -0.8686243051
     C     0.7420943704    4.2322443318    0.2472610509
     N     1.2337760178    5.4801571970    0.3256487278
     C     1.8869536313    5.9397710595   -0.7499542182
     C     2.0758471345    5.1998211474   -1.9178084703
     H     1.6789361755    3.2928175164   -2.8623776549
     H     0.4400110687    2.3763245527   -0.8789359842
     H     0.2146990790    3.8734622486    1.1303080568
     H     2.2806856936    6.9543929156   -0.6727714067
     H     2.6173746053    5.6309101779   -2.7571730429
     C     4.6493345900    0.2373476152   -0.2565812637
     C     3.3953527269    0.4185825059    0.3210779730
     C     2.7762701078   -0.6604062219    0.9661073899
     N     3.3442827480   -1.8799580204    1.0411226304
     C     4.5488601143   -2.0395113474    0.4769936842
     C     5.2458439630   -1.0229228045   -0.1762195228
     H     5.1523505743    1.0578217111   -0.7647149772
     H     2.8810142612    1.3735677047    0.2704549608
     H     1.7795376710   -0.5365563657    1.4247531212
     H     4.9825951773   -3.0383092890    0.5501308009
     H     6.2228614191   -1.2175567053   -0.6124077358
     C    -1.5832970800   -5.3616966588    1.0592163852
     C    -2.6963186832   -4.5633001266    0.7835206994
     C    -2.5186267639   -3.1910576214    0.6171368319
     N    -1.3124074644   -2.6010253008    0.7098512980
     C    -0.2438206242   -3.3681499089    0.9844547838
     C    -0.3342812400   -4.7490270342    1.1637347006
     H    -1.6881674661   -6.4364872363    1.1929873789
     H    -3.6909639687   -4.9946997244    0.7003637121
     H    -3.3247770388   -2.4821471941    0.4194666707
     H     0.7059722467   -2.8474991278    1.0682173943
     H     0.5614098188   -5.3236498510    1.3842314044
     N    -3.2770977947   -0.1702892100    0.3897323190
     H    -3.6213807704    0.3554734338   -0.4185798907
     H    -3.6519679963    0.3253538733    1.2024186214
     N    -0.1963178701   -0.2395054358    2.1467072145
     H    -0.1389298319    0.6522195569    2.6439574372
     H    -0.4134093103   -0.9380619110    2.8615603655
     N    -0.2090753948    0.3994935930   -1.0990845616
     H    -0.7058446876    0.3427319999   -1.9932000309
     H     0.6772759382   -0.0864790915   -1.2592512228
