17
-6.1567479340489831e+02 frame 705   xyz file generated by TeraChem
    Mn   -19.6470300696    2.0202045500   93.0551494955
     O   -19.3829387688    3.7703489301   92.2598762576
     H   -18.4420402522    3.6494968887   92.0451263349
     O   -17.7789139747    1.7197497936   92.7600497858
     H   -17.7739171280    0.7487230264   92.7282794250
     O   -19.9107727827    0.1288022445   92.7897167376
     H   -20.8707195870    0.1244493283   92.9500311965
     O   -21.5486745266    2.1493382893   93.2491211550
     H   -21.4701259272    2.4754736974   94.1710877376
     O   -19.7529332154    2.6675717511   95.1543162740
     H   -19.6425061282    3.5787663790   94.8318309102
     H    19.0976670258   -2.5694878916  -96.6552192979
     H    20.8618012042   -2.8897466716  -96.7363100399
     C    20.0797330179   -2.1150243295  -96.8956351326
     N    20.0895407212   -1.5548115438  -98.2788497280
     C    20.9470346942   -1.9855485572  -99.1138949240
     H    20.2327825310   -1.3181866968  -96.1403959018
