25
-1.9659464443674710e+03 frame 93   xyz file generated by TeraChem
    Mn     0.0007841539    0.0012493614    0.0076072221
     S    -0.4453035465    2.6536940550    0.4185937182
     H     0.4058453307    3.2916751562   -0.4180631014
     H     0.2622260228    2.9636131932    1.5298950478
     S     2.6572067566    0.3941683747    0.4321500934
     H     3.2806473945   -0.2539534890   -0.5792620847
     H     3.0125345471   -0.5184900032    1.3661603968
     S     0.4466352954   -2.6514758536   -0.4028717383
     H    -0.2632097018   -2.9647165447   -1.5117490654
     H    -0.4005548752   -3.2897154637    0.4375831870
     S    -2.6569561830   -0.3916914984   -0.4139528975
     H    -3.0066955409    0.5021575226   -1.3680515680
     H    -3.2805664011    0.2800078043    0.5819372083
     H    -0.6050259097    0.1934064873    5.0848804012
     H    -1.6432543276   -1.2228716306    4.6964650615
     C    -0.6574238920   -0.7666816348    4.5619128510
     N    -0.4526289620   -0.5311074386    3.1564403466
     C    -0.2884167144   -0.3416460053    2.0263583594
     H     0.1283007932   -1.4403030275    4.9181875981
     H     0.3848393730    1.7983978131   -4.7719204196
     H     1.7090369895    0.5818880362   -4.7800187936
     C     0.6543796477    0.7613368197   -4.5484135093
     N     0.4510929374    0.5298810870   -3.1421008907
     C     0.2879414014    0.3427133983   -2.0114794431
     H     0.0165442874    0.0704283202   -5.1086590300
