25
-8.6062910177830122e+02 frame 81   xyz file generated by TeraChem
    Fe     0.0761127562    0.2069633447    0.3493369168
     N    -0.3908374952    2.3798536554    0.6853252532
     H    -1.3987875411    2.3505493488    0.5297997119
     H    -0.2405740507    2.5254422247    1.6832333830
     H    -0.0070514001    3.1731072173    0.1763137716
     N     2.2620537944    0.5044234057    0.0299529162
     H     2.6428630075    1.3816491787    0.3799246588
     H     2.7447581836   -0.2525367446    0.5129784435
     H     2.4666037924    0.4411325623   -0.9658328352
     N     0.3503434054   -1.9761059125    0.0497977868
     H     1.0492760787   -2.4023653042   -0.5563302544
     H     0.5575053215   -2.2177438707    1.0347522090
     H    -0.5689716383   -2.3456332645   -0.2095969602
     C    -2.7125295225   -0.8413595775   -0.2756228006
     O    -1.9728707327    0.1527577766   -0.0021563015
     O    -2.4982663433   -1.8802129705   -0.8958777530
     H    -1.3548118275   -1.0007533349   -2.5230086317
     C     0.7740498631   -1.0743167097    2.8130661884
     O     0.4000920236    0.0616443250    2.3475230725
     O     0.8742066909   -1.0542662846    4.1558306703
     H     0.6059506804   -0.1506243071    4.4593076339
     C    -0.5819385806   -0.3164382674   -2.8950279265
     O     0.1989835623    0.3001470620   -2.1897645886
     O    -0.5841316562   -0.2337843686   -4.2282822545
     H     0.1170900469    0.3983398293   -4.4837871322
