19
-2.1973918898832944e+03 frame 91   xyz file generated by TeraChem
    Co     0.0419435398    0.0387228800   -0.0924982000
     S     0.5342339111    2.6139886409   -0.4380151622
     H    -0.1091893438    2.9414444465   -1.5791862552
     H    -0.3013436461    3.3106109831    0.3623730920
     S     2.6190839960   -0.4032019956   -0.6578691229
     H     3.0861678320   -1.2168171538    0.3129646142
     H     3.3126633472    0.6802434078   -0.2477127791
     S    -0.1269854780   -2.5976484878    0.2202411744
     H    -0.6707309836   -3.0886118370   -0.9140427971
     H    -1.2135044879   -2.8599304581    0.9777197711
     S    -2.5373998699    0.5188936607    0.2160070258
     H    -3.1701085481   -0.5766678739    0.6862594092
     H    -2.7037313842    1.2370572801    1.3470770002
     S     0.3898333752    0.5237470532    2.4420873734
     H     0.0906648205   -0.6033833280    3.1228817422
     H     1.7124312491    0.4562588415    2.7039340355
     N    -0.2628800153   -0.2760381644   -2.0925280738
     H    -1.0962924463   -0.0008373115   -2.6281383557
     H     0.4048594100   -0.6994525881   -2.7493459952
