39
-1.9705342272751282e+03 frame 72   xyz file generated by TeraChem
    Co     0.0583324569   -0.2100112763    0.2934619365
     C    -0.1065243967    4.1132775291   -0.6232719785
     C     0.6066754318    3.0249277528   -0.1987111708
     N    -0.2369319098    1.9457622922   -0.0390833602
     C    -1.4462913691    2.3647709381   -0.3626015949
     N    -1.4143199398    3.6733690595   -0.7193628297
     H    -2.2076111188    4.2149857949   -1.0292602990
     H     0.1815046882    5.1255816651   -0.8613392192
     H     1.6675576548    2.9387530289   -0.0191679482
     H    -2.3296820151    1.7411994216   -0.3468735387
     C     4.2265416064    0.3874187065   -1.0880130556
     C     2.8642482696    0.3226051466   -1.2068259428
     N     2.2972990895    0.1577510399    0.0426322923
     C     3.2978076427    0.1156992728    0.9025830640
     N     4.4898434818    0.2547235777    0.2641567108
     H     5.4010770095    0.2453760845    0.6986148009
     H     5.0140168030    0.5042202516   -1.8164518427
     H     2.2337574880    0.3476610781   -2.0844615659
     H     3.2056220693   -0.0064919077    1.9713832404
     C     1.0648704718   -4.4617536982    1.0408025179
     C     1.3001638741   -3.1363705190    1.2902442882
     N     0.3717124750   -2.3624964968    0.6273462173
     C    -0.4186731913   -3.1979916684   -0.0206579099
     N    -0.0365640614   -4.4798413403    0.2027042429
     H    -0.4768819174   -5.2981484754   -0.1914124879
     H     1.5582873235   -5.3647899910    1.3654841435
     H     2.0732844803   -2.6885115598    1.8968229702
     H    -1.2462714447   -2.8968220406   -0.6444741153
    Cl    -2.3703051034   -0.5865053349    0.8011117779
     C     0.6276663556    1.0445005877    4.5448689490
     C     1.0018925613    1.1269887328    3.2305824065
     N     0.4023709510    0.1172382463    2.5047885098
     C    -0.3358734003   -0.5638767399    3.3615556359
     N    -0.2226617407   -0.0444171513    4.6100721603
     H    -0.7207987965   -0.3666457078    5.4270015391
     H     0.8702206471    1.6402133093    5.4112485302
     H     1.6399640205    1.8561857183    2.7541914006
     H    -0.9937380959   -1.3770261158    3.0954130846
    Cl    -0.2094334497   -0.5886544057   -2.1096481233
