35
-1.0410780848233817e+03 frame 85   xyz file generated by TeraChem
    Fe     0.0067529691   -0.0016889806    0.0255492046
     C    -0.4295081427    2.9580138904   -0.9244984084
     O    -0.3337993542    2.0900339260   -0.0634978846
     H    -0.6077184677    4.0021720124   -0.6351851097
     H    -0.3399207573    2.7138076224   -1.9921742875
     C     2.9654118058    0.4323008577    0.9769893229
     O     2.0979509804    0.3386062880    0.1152325507
     H     4.0095742907    0.6124005272    0.6889152529
     H     2.7204591067    0.3390988788    2.0441833646
     C     0.4415837344   -2.9588322750   -0.9286129953
     O     0.3479278502   -2.0931954227   -0.0650075494
     H     0.3469335906   -2.7118770003   -1.9952108836
     H     0.6227984067   -4.0034079494   -0.6427614753
     C    -2.9523579602   -0.4389317461    0.9765513329
     O    -2.0850657664   -0.3426496328    0.1149212442
     H    -3.9967040199   -0.6173710822    0.6880512745
     H    -2.7073174460   -0.3496488544    2.0440650086
     O     0.0064598629   -0.0043460165    2.2237390155
     C     0.2549238724   -1.1027412217    3.0612443538
     C     0.1500524849   -0.7133029702    4.3497419859
     C    -0.1796559601    0.6910344947    4.3509346213
     C    -0.2589649048    1.0886207675    3.0631096282
     H     0.4683415564   -2.0280070570    2.5509191026
     H     0.2880130134   -1.3448851633    5.2168111341
     H    -0.4611281743    2.0172175601    2.5542085532
     H    -0.3340529465    1.3172876732    5.2190992830
     O     0.0031797364   -0.0007001410   -2.1728744368
     C     1.0958921722    0.2655531080   -3.0122355713
     C     0.6975525021    0.1894559054   -4.3000468645
     C    -0.7071102985   -0.1388287330   -4.2988278510
     C    -1.0959541355   -0.2460775306   -3.0103325310
     H     2.0250354022    0.4656900457   -2.5035062826
     H     1.3235328946    0.3451060007   -5.1681842975
     H    -2.0210457762   -0.4598320068   -2.4998649599
     H    -1.3393276385   -0.2742976890   -5.1658286778
