17
-6.0223033663275316e+02 frame 69   xyz file generated by TeraChem
    Co    -0.1596834858    0.0161501264   -0.0176109023
     O     0.4803836324    2.0801479840    0.3220948970
     H     0.0249034713    2.7883921926   -0.1629385937
     H     0.5716518047    2.3670870107    1.2464137146
     O     2.0219841788   -0.2302069895   -0.5294690926
     H     1.9932919428   -0.4291859341   -1.4821290631
     H     2.3498470757    0.6864354021   -0.4874860316
     O    -0.4859170643   -2.1083894325   -0.0917931208
     H    -0.4094818375   -2.5494524009   -0.9551701933
     H    -1.4247844421   -2.1727430485    0.1697491479
     O    -1.7668359441   -0.0316008201    0.8380840453
     H    -2.1167571355    0.7596228788    1.2815771660
     O     0.8691613659   -0.2577457848    1.8658961877
     H     0.3106098133   -0.7348269350    2.5036811364
     H     1.6389652065   -0.8264320890    1.6845362842
     O    -0.3386843704    0.2857255271   -1.7892659971
     H    -1.2547593660    0.3622684612   -2.1121827653
