21
-2.2225945630338756e+03 frame 217   xyz file generated by TeraChem
    Co    -1.3307543057    0.2765700626    0.6217179690
     S    -1.7208209610    2.4296519105   -0.3988041922
     C    -3.2114936363    2.0570877985   -1.0988213912
     N    -4.2388015478    1.7793855894   -1.5945691974
     S     3.5140775259    0.2336207111    1.3664274532
     C     4.3686264960    0.5724119936   -0.0403751147
     N     4.9796532952    0.8189936508   -1.0173904192
     S    -1.0615763438   -3.7950733262   -0.7574994208
     C    -1.5104939224   -4.1066879333   -2.3491486935
     N    -1.8311890089   -4.3444101070   -3.4562072821
     N    -2.7795315154   -0.9521935813   -0.2354917490
     H    -2.3650917028   -1.8699370134   -0.4908536890
     H    -3.5333350401   -1.1244531342    0.4292497789
     H    -3.2031118617   -0.5259415037   -1.0619952914
     S    -1.7779387934   -0.0581955014    2.9473559963
     C    -1.7141448406    1.4736200280    3.6632633557
     N    -1.7007216643    2.5025866677    4.2228191645
     N     0.4817867780   -0.4164899590   -0.0677426881
     H     0.6983269232    0.0108489068   -0.9704351141
     H     1.3285088210   -0.2494408521    0.5150354847
     H     0.4103928361   -1.4272375084   -0.2448369888
