31
-2.4194577238488159e+03 frame 168   xyz file generated by TeraChem
    Co     0.4828714252   -0.1097753535    1.5953645459
     S     1.4474678556    2.4393342129    1.4811628481
     C     1.7866093142    2.7727230520   -0.1295301571
     N     2.0103872679    3.0417593160   -1.2499385230
     S     3.1649713702    0.2321889559    2.3262646066
     C     4.2764082614    0.1388789212    1.0772544404
     N     5.0702064512    0.0554021055    0.2152206992
     S     0.2233992416   -2.5317582572    1.8023054911
     C    -0.3730315934   -2.9271297550    0.2780115332
     N    -0.8115260593   -3.2003946408   -0.7776058892
     O    -1.6044447480    0.4990084423    0.9929460116
     C    -2.1350937526    1.6595620081    1.6416941917
     C    -2.6119096514   -0.5110469534    0.8304533159
     H    -2.1906790222   -1.3000516967    0.2106014658
     H    -3.4837600824   -0.0690801956    0.3299419216
     H    -2.9076292203   -0.9158025753    1.8054214847
     H    -1.3335828786    2.3969559286    1.6893918569
     H    -2.4741510056    1.4133465545    2.6547044587
     H    -2.9716922359    2.0570349284    1.0517246473
     S     0.0650437677    0.4442819983    3.9416194715
     C     0.7895072090   -0.8177258148    4.7997956738
     N     1.2778524820   -1.6732484996    5.4333106902
     O     1.0464742156   -0.2351009321   -0.5157063445
     C     0.1913561453    0.2284775281   -1.5671889111
     C     2.0264118171   -1.1660804189   -1.0033099601
     H     2.5318578789   -1.5881208896   -0.1375194689
     H     2.7487436463   -0.6347273277   -1.6314444724
     H     1.5279106749   -1.9642836797   -1.5621875277
     H    -0.5386021110    0.8937687590   -1.1106669205
     H    -0.3175472416   -0.6270169053   -2.0276220854
     H     0.7825445203    0.7793900023   -2.3060332701
