17
-2.1928601510602548e+03 frame 62   xyz file generated by TeraChem
    Cr    -0.1642095244    0.0062116264   -0.2144291991
    Cl    -0.5539724709    2.3476748694   -0.6042389697
    Cl     2.1560428409    0.1924971976   -0.4944949557
    Cl    -0.4387510072   -2.3633240446   -0.4887567821
     H    -5.2674535930    0.8580041322   -0.2070610749
     H    -5.2824921917   -0.9264309073   -0.1862788390
     C    -4.8029053675   -0.0332839524    0.2268487326
     N    -3.4209302232   -0.0471253140   -0.0644345672
     C    -2.2584346434   -0.0356167083   -0.1697086987
     H    -4.9459486925   -0.0191550030    1.3121514205
    Cl    -0.4437376677    0.1924453984    2.1058415542
     H    -0.1580448239    0.8517762400   -5.3196726512
     H     1.3611750915   -0.0248860202   -4.9967690596
     C     0.2759305218   -0.0385105425   -4.8532722232
     N    -0.0148619098   -0.0492500124   -3.4711629213
     C    -0.1197378662   -0.0366590080   -2.3086422203
     H    -0.1375592079   -0.9326622099   -5.3306823032
