20
-8.4403932834867123e+02 frame 819   xyz file generated by TeraChem
    Fe     0.4217414481   -0.4362534871   80.6811037000
     C     0.7784444902    1.7866930701   80.2724457909
     O     0.9555380557    2.8813779564   80.0900128733
     C     2.6447235952   -0.7920727972   80.2704058633
     O     3.7393879436   -0.9689485515   80.0875269302
     C     0.0673075559   -2.6598367091   80.2727126431
     O    -0.1093844343   -3.7547084092   80.0909722542
     C    -1.8018456600   -0.0809006271   80.2744849373
     O    -2.8967072250    0.0961913639   80.0930685624
     C     0.4237634873   -0.4364290502   82.9629844434
     O     0.4258679706   -0.4369481162   84.0856402902
     O    -0.4428390999    0.4595968813 -100.7147707849
     C     0.3450281974   -0.3281742294 -101.5799830682
     C    -1.3799210702    1.3966804578 -101.1986096644
     H    -2.3422615182    1.1189967399 -100.7299176586
     H    -1.4197241125    1.4366271367 -102.2872108929
     H    -1.1024003214    2.3589670747 -100.7297086240
     H     1.3922363907   -0.1355605538 -101.2813409803
     H     0.1480494863   -0.1311213944 -102.6338649087
     H     0.1524715243   -1.3754133206 -101.2814462581
