34
-2.1017250736718174e+03 frame 70   xyz file generated by TeraChem
    Mn     0.3148681338    0.0164948945   -0.0075245353
     C     0.1066314734    2.2994768483   -0.1257591655
     S     0.1287534483    3.8065184132   -0.2537463339
     C     2.6283111261    0.1333186865   -0.0106350400
     S     4.1383148268    0.2146207567   -0.0233297785
     C     0.2573447096   -2.2630761367    0.1333484402
     S     0.3727233689   -3.7650438819    0.2662428580
     O    -2.1510892276   -0.0134750032    0.0007738677
     C    -2.9951498409    0.7350152849    0.8149389963
     C    -4.3031476703    0.4224084225    0.5487849912
     C    -4.2945748215   -0.5579567227   -0.4797828813
     C    -2.9815621716   -0.8045788994   -0.7863604764
     H    -2.5185821479    1.4428220156    1.4753301380
     H    -5.1702154028    0.8530651908    1.0338606836
     H    -2.4909079114   -1.4845847479   -1.4656971740
     H    -5.1535328437   -1.0308621803   -0.9392408258
     O     0.1318647435    0.0382916004    2.4092741495
     C    -0.9176441778   -0.5541634691    3.1106693185
     C    -0.8869944697   -0.1589196601    4.4209223932
     C     0.2239994099    0.7185417809    4.5652853699
     C     0.8159974654    0.8171892140    3.3371512418
     H    -1.5315501182   -1.2465834307    2.5568479128
     H    -1.5736970655   -0.4752003479    5.1959996034
     H     1.6804834430    1.3489986264    2.9694155196
     H     0.5551129072    1.2107343814    5.4709863571
     O     0.1385638537   -0.0203865126   -2.3980225455
     C    -0.9196472130    0.5404714376   -3.1139863299
     C    -0.8663744875    0.1362676683   -4.4192093771
     C     0.2683194654   -0.7152545763   -4.5467110313
     C     0.8511983170   -0.7905325912   -3.3140746679
     H    -1.5587591659    1.2169347673   -2.5690554369
     H    -1.5533531235    0.4285849253   -5.2033339383
     H     1.7262153323   -1.2960171202   -2.9343479396
     H     0.6190811670   -1.2057479805   -5.4458741928
