11
-2.0978704776961767e+03 frame 97   xyz file generated by TeraChem
    Mn     0.0039699356    0.0032632605   -0.0161186079
    Cl     0.3867672284    2.2885576525   -0.3598662315
    Cl     2.2893364347   -0.3414773503    0.3493599011
    Cl    -0.3792510289   -2.2824668891    0.3283509556
    Cl    -2.2827642189    0.3477453457   -0.3804528565
     O    -0.6830977029    0.1037257853    2.2919215972
     H    -1.5880478281    0.2999874799    1.9802678387
     H    -0.6698174528   -0.8726110030    2.3287548384
     O     0.6730534361   -0.1050260156   -2.3167911961
     H     1.5845672488   -0.2979287347   -2.0231439943
     H     0.6585944153    0.8705465938   -2.3675590879
