15
-1.4399676542504135e+03 frame 977   xyz file generated by TeraChem
    Cr     0.0005170894    0.0011075213    0.0205443933
     C    -0.3539175243    2.0813348087   -0.3035484497
     N    -0.5478115236    3.2248496702   -0.4822618007
     C     2.0873021955    0.3128254640   -0.3052323116
     N     3.2342513711    0.4841873395   -0.4850107264
     C     0.3549417204   -2.0791400227    0.3444963031
     N     0.5488162063   -3.2226920280    0.5229678956
     C    -2.0862836802   -0.3106184879    0.3462186749
     N    -3.2332662132   -0.4820040216    0.5257813722
     S     0.3557661344   -0.2363453842  203.1333336907
     C     0.5319407985   -0.4147252767  204.7909523049
     N     0.6566991500   -0.5405020741  205.9582969705
     S    -0.3580705177    0.2322015578 -203.1835405058
     C    -0.5334042252    0.4114731464 -204.8411336098
     N    -0.6575994404    0.5378962848 -206.0084383493
