15
-8.7057459407960766e+02 frame 0   xyz file generated by TeraChem
    Co    10.9724330735   52.8907046473  142.7456657491
     F    11.2579389803   54.7596437705  143.0534860877
     F    12.2604202192   52.3054194706  141.4396006017
     F    -3.9540792405  -18.1263229542  -49.5897233486
     F     9.1692343539   52.5982367139  142.1168228222
     F    11.2464999693   51.9692596550  144.4142622039
     C    -5.0432105571  -20.9597491369  -51.4005691593
     C    -4.7518501593  -21.7762923528  -52.4812516131
     N    -3.6061306959  -21.3386584342  -53.1010101404
     C    -3.2607264105  -20.2745389790  -52.3606070134
     N    -4.0778969117  -19.9870617532  -51.3220532455
     H    -3.9894635231  -18.8585928349  -50.2834478310
     H    -5.8616799964  -21.0014094019  -50.6886121239
     H    -5.2951942277  -22.6450854115  -52.8452151150
     H    -2.3800649291  -19.6728204381  -52.5734088805
