19
-2.4165328295783438e+03 frame 38   xyz file generated by TeraChem
    Fe     0.1308198362   -0.1377417843    0.1152056153
     P    -0.4482591946    2.4088434869   -0.4590272186
     H    -1.0852826468    3.3255485545    0.4135936153
     H     0.4224136681    3.3318527701   -1.0897875670
     H    -1.4420766124    2.3648137420   -1.4560882301
     P     2.8887895853    0.3040758922   -0.0006450913
     H     3.2431451961    1.2760869830   -0.9641792804
     H     3.8982953987    0.6434053592    0.9454964103
     H     3.5865518241   -0.7712236143   -0.5968366020
     P     0.4252031266   -2.7843173804    0.4116191488
     H     1.5688660117   -3.5394000011    0.0503637397
     H     0.0647791464   -3.5358346566    1.5579005855
     H    -0.4848805431   -3.3613093791   -0.4950241738
    Cl    -2.1794892528   -0.4771872399    0.5581074810
     P     0.0071355764    0.2999092784    2.8794428744
     H     0.9474433079    0.6334474587    3.8964182817
     H    -0.9562062077    1.2729425219    3.2317850092
     H    -0.5961216304   -0.7762338539    3.5698081976
    Cl     0.5753488249   -0.4773358387   -2.1947457988
