49
-1.2681649970456338e+03 frame 66   xyz file generated by TeraChem
    Fe     0.0544579053    0.0230068396    0.0158196009
     C     0.5678048244    5.0047139361    0.9537185889
     C     1.5461560075    4.3092945902    0.2436912813
     C     1.3593437230    2.9517369677   -0.0002148507
     N     0.2715803294    2.2794471154    0.4184381132
     C    -0.6689172396    2.9554641291    1.1036792618
     C    -0.5612143069    4.3127396911    1.3917292348
     H     0.6826049733    6.0643261890    1.1613313282
     H     2.4420962023    4.8038976211   -0.1165574043
     H     2.0989761486    2.3755441895   -0.5460767066
     H    -1.5348167838    2.3828109542    1.4199391083
     H    -1.3492480789    4.8108789034    1.9467528335
     C     5.0107566842   -0.8804204604    0.3938139580
     C     4.2089987365   -0.8127443642    1.5333771426
     C     2.8514332206   -0.5442663487    1.3842906609
     N     2.2852379511   -0.3387783901    0.1808967694
     C     3.0574543514   -0.4155781239   -0.9197091967
     C     4.4219353746   -0.6821605112   -0.8554709393
     H     6.0732057451   -1.0901305615    0.4768962474
     H     4.6222644777   -0.9694175680    2.5243656367
     H     2.1757139841   -0.5026380711    2.2312877731
     H     2.5341156945   -0.2635888079   -1.8583580677
     H     5.0048787436   -0.7357435735   -1.7691401498
     C    -0.6806161694   -4.8404753072   -0.9376011078
     C    -0.5763378806   -4.3846407758    0.3765748279
     C    -0.3742777451   -3.0265399866    0.6046612939
     N    -0.2736099292   -2.1398327417   -0.4031869470
     C    -0.3751940485   -2.5766222536   -1.6724955396
     C    -0.5794926467   -3.9184281453   -1.9794033759
     H    -0.8386116430   -5.8946507855   -1.1461515337
     H    -0.6509142820   -5.0662229320    1.2175965915
     H    -0.2940235471   -2.6185112771    1.6064621796
     H    -0.2872056777   -1.8124791373   -2.4377270615
     H    -0.6570498224   -4.2275057285   -3.0166144642
     C    -4.9871589128    0.4201624994   -0.5234141348
     C    -4.1294597464    0.7287855830   -1.5791506149
     C    -2.7551280519    0.6482776420   -1.3726342054
     N    -2.2205782803    0.2936008247   -0.1905935397
     C    -3.0500654074   -0.0140106914    0.8245017800
     C    -4.4354897534    0.0392862959    0.7001924481
     H    -6.0643294857    0.4703005590   -0.6528515615
     H    -4.5130447560    1.0219908576   -2.5509337402
     H    -2.0443195737    0.8537904463   -2.1651101501
     H    -2.5656837132   -0.3137596203    1.7485113702
     H    -5.0638422171   -0.2184866450    1.5465676754
     O    -0.1734747449   -0.3391200636    1.8319219869
     H    -0.1690699750    0.3862303587    2.4728900539
     O     0.2810517108    0.2911396008   -1.8254975839
     H     0.3490398489    1.1970493939   -2.1592146640
