16
-1.9170249514311154e+03 frame 76   xyz file generated by TeraChem
    Mn    -0.5298138948   -0.5154453532   -1.1167280074
     C    -1.3560687022    1.8754672352   -1.0151445147
     O    -1.8018184268    2.9088170780   -1.1390476081
     C     1.8675224032   -1.3363228052   -1.0463810783
     O     2.9019457101   -1.7756537236   -1.1837804809
     S    -0.9855732240   -3.1082909048   -0.7039543160
     C    -0.4232049186   -3.0002286214    0.8715318933
     N     0.0014097686   -2.8833101292    1.9595047607
     S    -3.1076503632   -0.9924381019   -0.6825715740
     C    -2.9848638327   -0.4584653637    0.9022051891
     N    -2.8586808631   -0.0534688130    1.9964819912
     C     0.1508342324    0.1423644566    1.1298478854
     O     0.5520218781    0.5323878213    2.1111132775
     S    -0.0991373188   -0.0712947571   -3.5209445477
     C     0.9440646877    0.9750437409   -2.7056899635
     N     1.6012520344    1.6332323891   -1.9839884995
