21
-1.9491301233445079e+03 frame 206   xyz file generated by TeraChem
    Fe   -50.9748755245  -34.3928312278   -4.9418545658
     S    27.6553771194   20.0736268361    1.6701071410
     H    28.1865956045   21.1302741955    2.3291112275
     H    26.5759341289   20.0068068280    2.4844116376
     S    29.1218596693   18.1943414667    3.3677453223
     H    28.6044536273   17.1395974545    2.6948377093
     H    30.2093955369   18.2745059738    2.5654909953
     S   -52.0885135564  -36.4595365534   -5.9378237255
     H   -51.0870521698  -36.9862361642   -6.6765769206
     H   -52.0123553784  -37.3843123111   -4.9555089663
     C   -53.4541119739  -32.4334368871   -5.1032201358
     O   -52.3622017527  -32.9740165699   -4.9148723256
     H   -53.5827432585  -31.3740483040   -4.8474393102
     H   -54.3009991941  -32.9937779142   -5.5213219298
     S   -50.4507375327  -34.7796563144   -2.5170031208
     H   -49.8739842032  -33.6227313974   -2.1209098324
     H   -49.3047941189  -35.4961769739   -2.5077269438
     C   -48.5665638925  -33.3858551617   -6.7562281975
     O   -49.6094433234  -33.8153545634   -6.2592232330
     H   -47.6611272572  -33.2560039626   -6.1488606657
     H   -48.5399742496  -33.1314526171   -7.8234770159
