19
-1.0114107633390522e+03 frame 305   xyz file generated by TeraChem
    Mn     1.5097723613    0.7807929158   -0.9841352772
     C     1.0742859123    2.7847914743   -1.3184597607
     O     0.7531383878    3.7586183146   -1.8312891134
     C     3.4408050341    0.9191215606   -1.5403688358
     O     4.5570418387    1.0260566733   -1.7891160647
     C     1.6829351994   -1.0878792676   -0.0731442555
     O     1.6897404281   -2.2265051991    0.0622448621
     C    -2.9902573327   -0.0754460653    0.0304695716
     O    -3.8607224519   -0.4066502808   -0.6715485511
     O    -2.1540762523    0.2616168665    0.7790169250
     H    -0.4935939445    1.2227249153    2.0425681264
     C     0.5328022229    1.5620752705    2.2103153500
     O     1.4191819633    1.5232976175    1.3751877804
     O     0.6965587370    2.0269351040    3.4466366851
     H     1.6280111135    2.3131084870    3.5373172237
     C     0.0812688712    0.1164962391   -2.3093697974
     O     0.5662397776   -0.0366297857   -3.4239686570
     O    -1.2475669098   -0.1626608151   -2.1150774081
     H    -1.5954501850   -0.4552944202   -2.9872549439
