39
-1.9545709669996611e+03 frame 64   xyz file generated by TeraChem
    Cr     0.0025582336   -0.0009659618    0.0635604255
     P    -0.4546312705    2.5370625069   -0.3463851316
     H    -1.3526444329    3.1507510850    0.5476239488
     H     0.6399373730    3.4234792309   -0.2949933680
     H    -1.0150311981    2.8586152043   -1.5972885148
     P     2.5732451884    0.2578465989    0.4383621318
     H     3.1310379971    1.5503503942    0.3652589669
     H     3.0550601235   -0.1824827494    1.6859513940
     H     3.3943951623   -0.4486038045   -0.4611795496
     P     0.4587605522   -2.5392377943    0.4743869601
     H     1.3564570709   -3.1541246328   -0.4191322491
     H     1.0191187558   -2.8601191916    1.7254833805
     H    -0.6361868185   -3.4252327981    0.4237533933
     P    -2.5682352737   -0.2601379901   -0.3116297671
     H    -3.1259335043   -1.5526063362   -0.2371117769
     H    -3.3897714520    0.4472439738    0.5868370774
     H    -3.0497801020    0.1786296096   -1.5598739288
     C    -0.7751573899    0.6497172670    4.8766045928
     C    -1.3966800921   -0.3957981717    4.1879922861
     C    -1.1484347959   -0.5519364034    2.8307569460
     N    -0.3223541139    0.2697734087    2.1282950273
     C     0.2748036476    1.2833272155    2.8116042085
     C     0.0767257619    1.5018177364    4.1683893550
     H    -0.9498569021    0.7962519763    5.9387036021
     H    -2.0658607204   -1.0854886284    4.6927764715
     H    -1.6200267080   -1.3640502130    2.2859544650
     H     0.9319800158    1.9396141938    2.2495621250
     H     0.5833577065    2.3280641908    4.6571879950
     C     0.7823739390   -0.6505181464   -4.7492117285
     C     1.4025280436    0.3957516955   -4.0604959295
     C     1.1535893958    0.5518185483   -2.7033848534
     N     0.3280590434   -0.2706518773   -2.0011649231
     C    -0.2677995557   -1.2848946298   -2.6845560231
     C    -0.0689463496   -1.5033732175   -4.0412412924
     H     0.9576741371   -0.7970197341   -5.8112152664
     H     2.0711704604    1.0860816760   -4.5651177630
     H     1.6240558748    1.3645276647   -2.1584952249
     H    -0.9246751750   -1.9416792307   -2.1227375561
     H    -0.5745786386   -2.3301736220   -4.5301358391
