43
-8.5887325998327060e+02 frame 52   xyz file generated by TeraChem
    Cr     0.0209516630   -0.0285017924    0.1142669909
     O     0.0206687000    2.1542751856    0.0893823074
     C     1.2017036089    2.9738956348   -0.1348375480
     C    -1.1468723597    2.9922492639    0.3214819975
     H    -2.0009962723    2.3271353031    0.4162142743
     H    -1.2818165449    3.6691113875   -0.5277298585
     H    -1.0046763603    3.5742482565    1.2366181629
     H     2.0388163393    2.2920150066   -0.2519203346
     H     1.3617894287    3.6274812511    0.7281559795
     H     1.0602816389    3.5811130936   -1.0340113180
     O     2.4291194168   -0.0172675258    0.1094438312
     C     3.2216055247   -0.1895284075   -1.0858259142
     C     3.2683063559    0.1037445483    1.2770965299
     H     2.6077401386    0.1433824021    2.1436555335
     H     3.8694690965    1.0176080970    1.2205969404
     H     3.9346661022   -0.7622787807    1.3611926188
     H     2.5300230788   -0.1918294988   -1.9288701430
     H     3.7701772272   -1.1364705191   -1.0433641622
     H     3.9318354661    0.6375687719   -1.1938173848
     O     0.0413299117   -2.1392848876   -0.0314772899
     C    -1.0223486842   -2.9122727757   -0.6513245863
     C     1.2082560414   -2.9724622954    0.2179314733
     H     1.9555075363   -2.3473168768    0.6976498271
     H     1.5907658868   -3.3589178314   -0.7311820457
     H     0.9197292008   -3.7997867500    0.8716211915
     H    -1.8896240957   -2.2603462853   -0.7215240736
     H    -1.2544580709   -3.7734790088   -0.0183164432
     H    -0.7035875555   -3.2589146924   -1.6396800258
     O    -2.4404162393   -0.0154699973    0.1003700022
     H    -3.0669919378    0.1266525455   -0.6308632727
     H    -3.0024290668   -0.1676153496    0.8800482072
     O    -0.1468798729   -0.0679059411    2.2289532422
     C    -0.4661659285   -1.2471490931    3.0153267848
     C     0.0962465372    1.0742828196    3.0936127853
     H     0.3553365889    1.9100149232    2.4494048846
     H     0.9192151034    0.8462500382    3.7770862123
     H    -0.8104816371    1.2980027777    3.6631865535
     H    -0.7043342527   -2.0460330386    2.3180317986
     H    -1.3259810283   -1.0331357640    3.6573480209
     H     0.3962866044   -1.5218699127    3.6296853537
     O    -0.0820908752    0.2226494255   -1.9886993065
     H    -0.1614882655   -0.4239034535   -2.7098421907
     H    -0.2058461941    1.1110574571   -2.3626513001
