34
-7.7897932803059280e+02 frame 40   xyz file generated by TeraChem
    Cr     0.1186278602    0.1106065838    0.0177690394
     O    -0.2635433305    1.9674649966    0.2245695318
     H     0.5128969218    2.4798270330    0.4955128530
     O     1.9647419517    0.2233698046   -0.0931332419
     H     2.1793932970    0.9403982842   -0.7105715008
     O    -0.1799312061   -1.7391750261   -0.2764964618
     H     0.6717234478   -2.1820349783   -0.4079615385
     O    -2.2467273195    0.0529105641    0.0615337875
     C    -3.0603165343    1.1709340793    0.4227675369
     C    -3.0221068442   -1.0972162558   -0.2796997918
     H    -2.3079818635   -1.8946766861   -0.4835163444
     H    -3.6436724878   -0.8869120765   -1.1624104386
     H    -3.6810031452   -1.3728489745    0.5564748735
     H    -2.3752887937    1.9908222920    0.6376663966
     H    -3.6721865362    0.9253269259    1.3030824792
     H    -3.7286714346    1.4346740764   -0.4095198183
     O     0.2441360379   -0.1720540571    2.1161659057
     C     1.5286217949   -0.1576882333    2.7532099056
     C    -0.6528226805   -1.1038764562    2.7259104489
     H    -1.6150063806   -0.9783039188    2.2345230732
     H    -0.7414025904   -0.8684185487    3.7939946800
     H    -0.2991568111   -2.1315568790    2.5894290686
     H     2.1654757788    0.4842237572    2.1508242629
     H     1.9531008593   -1.1694355868    2.7716290621
     H     1.4153629858    0.2192013677    3.7770897775
     O     0.0542308381    0.5524808638   -2.1064422420
     C     0.3743183965   -0.5301491277   -2.9856018837
     C    -1.0055985430    1.3794278944   -2.5991639359
     H    -1.1007785771    2.1951807279   -1.8846529335
     H    -1.9385064309    0.8050432463   -2.6603044694
     H    -0.7357074114    1.7556681313   -3.5940127959
     H     1.2628049687   -1.0089358132   -2.5767225306
     H     0.5882729824   -0.1299223244   -3.9849586988
     H    -0.4468099066   -1.2526515981   -3.0303386818
