62
-1.4597699521459976e+03 frame 74   xyz file generated by TeraChem
    Cr    -0.0165558106   -0.0035125034    0.1899331845
     C     0.6392402661    4.8776214554   -0.3387294996
     C     1.6190461833    4.0929010086    0.2735331817
     C     1.3966958582    2.7305055373    0.4262116548
     N     0.2566691940    2.1186229296    0.0111953447
     C    -0.6869151467    2.8899600691   -0.5868374386
     C    -0.5326937841    4.2576220932   -0.7759554427
     H     0.7858332999    5.9454347909   -0.4715238722
     H     2.5475578377    4.5257236456    0.6313465153
     H     2.1420575559    2.1030577436    0.9001188348
     H    -1.5906681035    2.3912287189   -0.9145758847
     H    -1.3240601306    4.8228334690   -1.2572296189
     C     4.7952825869   -0.7063962630   -0.7466738778
     C     4.1696566354   -1.3817357398    0.3019742510
     C     2.8207004089   -1.1544048555    0.5457929261
     N     2.0725270935   -0.2952063196   -0.1889322480
     C     2.6918181025    0.3562903886   -1.2081303914
     C     4.0341190027    0.1779502298   -1.5143721724
     H     5.8482549789   -0.8639590058   -0.9604764245
     H     4.7148793764   -2.0787755809    0.9297746860
     H     2.3230954521   -1.6766997029    1.3508827901
     H     2.0881570783    1.0494821868   -1.7799599340
     H     4.4718083672    0.7276718523   -2.3412044021
     C    -0.8686686163   -4.8399532885   -0.3719588132
     C    -1.5964409867   -4.0987460266    0.5618613729
     C    -1.3209331883   -2.7461605511    0.7153251724
     N    -0.3608576319   -2.1038198212    0.0000911024
     C     0.3357767278   -2.8327020963   -0.9098866010
     C     0.1126261951   -4.1873798865   -1.1202581116
     H    -1.0629409121   -5.8990361855   -0.5133047144
     H    -2.3711763579   -4.5580829277    1.1670604260
     H    -1.8729054674   -2.1517751291    1.4327486413
     H     1.0923556139   -2.3078855303   -1.4794044576
     H     0.7035494683   -4.7177100074   -1.8598047101
     C    -4.8791432845    0.6766829714    0.8064962328
     C    -4.3871070025   -0.0944193620   -0.2489765602
     C    -3.0159371670   -0.2696315730   -0.3769373931
     N    -2.1165621245    0.2817174082    0.4803402932
     C    -2.6060647778    1.0293209196    1.4997572257
     C    -3.9650622683    1.2450596724    1.6944604694
     H    -5.9468640584    0.8285145544    0.9337893893
     H    -5.0546803801   -0.5604750148   -0.9662904552
     H    -2.6179170350   -0.8791378452   -1.1781530984
     H    -1.8881916905    1.4686822197    2.1781525404
     H    -4.2937895878    1.8503764451    2.5327864452
     C     0.7862297804   -0.1237276485    5.0823498764
     C     0.6409171420    1.0903489735    4.4101004639
     C     0.4140432134    1.0833898076    3.0397222102
     N     0.3229479608   -0.0543503375    2.3039391873
     C     0.4660366733   -1.2279806829    2.9721480382
     C     0.6951849517   -1.3020532451    4.3406000731
     H     0.9643980561   -0.1506953245    6.1532068951
     H     0.7010681840    2.0383593954    4.9345051541
     H     0.2968906875    2.0135771853    2.5028532054
     H     0.3907435540   -2.1361960355    2.3909705506
     H     0.7971382194   -2.2747691735    4.8105055014
     H     0.2079461990    0.5277805707   -4.9998639946
     H    -0.9307190261   -0.8499357576   -4.8836689667
     C    -0.7033393517    0.1567216504   -4.5241860824
     N    -0.4994962737    0.1083111289   -3.1030301627
     C    -0.3352941747    0.0678935622   -1.9555241155
     H    -1.5374577796    0.8294144525   -4.7392005409
