13
-7.0204286575534513e+02 frame 108   xyz file generated by TeraChem
    Mn     0.3042265966    0.2305429060    0.8911075877
     C     0.6941793703    2.1592237995    1.2751980760
     N     0.9019322297    3.2912594815    1.4794009475
     C     1.7708632461    0.2086295710   -0.4790578355
     N     2.5960101664    0.1935727229   -1.3070904211
     C     0.0293294248   -1.7382360446    0.6162110842
     N    -0.1481569377   -2.8774857616    0.4228415003
     C    -1.4614777165    0.8555820060   -0.8094937360
     O    -2.2923163686    1.1593951832   -1.5192715152
     C    -1.0517500715    0.2127906896    2.3685449000
     N    -1.8610798017    0.2084122761    3.2119582667
     C    -0.0897771722   -1.5478186937   -2.8377921643
     O     0.5581271536   -2.3558347713   -3.3089321545
