9
-7.4965194819142835e+02 frame 164   xyz file generated by TeraChem
    Fe     0.2813857581   -0.5794979738   -0.2576533461
     F    -0.4337594858    0.8861381092   -1.0441892666
     F     2.0307513108   -0.7857940234   -0.5424620070
     F    -0.5103554782   -2.0322148637   -0.9779015180
     C    -1.9126021696    1.6249088974    1.1713951533
     O    -1.3060317595    2.5303085238    1.5098410765
     F    -0.0254396500   -0.3429221084    1.4950437398
     C    -1.7142671745   -0.7474828073   -3.0646441353
     O    -0.8560877254   -0.8603246048   -3.8078073744
