17
-9.5501482289690443e+02 frame 210   xyz file generated by TeraChem
    Fe     0.7750934729   -0.1686926175    0.0460705348
     C     0.3271761029    2.0777268594    0.5562359901
     O    -0.0708633047    3.1244706852    0.7389959054
     C     2.8176544763    0.1350095957    0.4070435833
     O     3.9169068334    0.3398745209    0.6059845937
     C     0.7629146647   -2.3843016153   -0.5204631254
     O     0.3255599976   -3.3723258650   -0.8754945925
     C    -2.6158895145   -0.0813880215   -0.5555516019
     O    -3.1967917455   -1.0092759327   -0.8631462910
     C    -0.1006478516   -0.6575953701    1.8378916275
     O     0.7249505505   -0.2656602927    2.6627422600
     O    -1.2420873397   -1.2550327328    2.2370509061
     H    -1.2267568169   -1.2720171348    3.2206577521
     C     0.5117653749    0.3113579515   -1.9402474356
     O     1.1925586707    1.3098449971   -2.1638518755
     O    -0.2109972813   -0.2614236338   -2.9306595683
     H    -0.0586057132    0.2779541446   -3.7393712920
