31
-8.8120042387542412e+02 frame 56   xyz file generated by TeraChem
    Fe    -0.0724106913   -0.1425387658   -0.1846298800
     O     0.0025651964    2.1161243847    0.2281782239
     H    -0.2527090349    2.8235697207   -0.3873409489
     H    -0.1358174800    2.4542954594    1.1290587288
     O     2.0859330958    0.3117751604   -0.0672866478
     H     2.9006632674   -0.1272137409    0.2272734742
     H     2.1589926557    1.2585187724    0.1465237642
     O     0.0533326624   -2.3227787435   -0.5153416496
     H     0.0532819800   -2.5581075856   -1.4600664981
     H     0.6893680660   -2.9237851753   -0.0913868210
     C    -4.3339104189    0.2442276380    0.4021594126
     C    -3.0651692187    0.7382968717    0.2924614266
     N    -2.1683932986   -0.3131950606    0.1525824100
     C    -2.8988305408   -1.4301397713    0.1780652949
     N    -4.2027980347   -1.1273777067    0.3276396546
     H    -4.9615112286   -1.7981796467    0.3763842943
     H    -5.2909380438    0.7283079060    0.5240736252
     H    -2.7292035104    1.7628383712    0.3009531830
     H    -2.5205967590   -2.4373552839    0.0886727533
     O     0.0739067778   -0.2659273372    2.0329302263
     H    -0.7357645888   -0.5491059190    2.4900165308
     H     0.8213836479   -0.5433682737    2.5885622594
     C    -0.6307651586    0.4796595460   -4.4077031309
     C    -1.0676593033    0.2268186874   -3.1381301906
     N     0.0226347364    0.1855948992   -2.2771318502
     C     1.1014300175    0.4139277382   -3.0275060983
     N     0.7408721715    0.5936754384   -4.3125483082
     H     1.3743079355    0.7830143256   -5.0811158236
     H    -1.1563519415    0.5868605021   -5.3443456935
     H    -2.0749744039    0.0761685853   -2.7821179129
     H     2.1198983430    0.4561851306   -2.6737865328
