19
-1.3292352466330292e+03 frame 295   xyz file generated by TeraChem
    Fe    -0.3761671889    0.8788415525    0.0156569950
     N    -0.5879503873    2.8392784083   -0.1494592845
     H    -0.2488951403    3.1279568376   -1.0745692554
     H    -1.5920996984    3.0518512912   -0.1820555993
     N     1.5739527534    0.5658696670    0.2581276078
     H     1.8854285754    1.1139837923    1.0682027861
     H     1.7025379072   -0.4100403746    0.5529962795
     N    -0.9589009577   -0.2343900102   -1.5181068922
     H    -1.7177869642   -0.8366501808   -1.1804344330
     H    -0.1895263097   -0.8810239616   -1.7240160007
     N    -1.4723465480    0.3001259247    1.5700390331
     H    -1.0619264504    0.7043133734    2.4201375229
     H    -1.3391633129   -0.7109455208    1.6967104869
     S    -0.1706553339    1.3253352711   26.2445421532
     C     0.0141363351   -0.3148399835   25.9498181914
     N     0.1457890760   -1.4700026393   25.7445604048
     S     0.6687043934    1.1590661111  -26.1959480043
     C    -0.2261533287   -0.2564555473  -26.1187922509
     N    -0.8550943354   -1.2543318003  -26.0663135409
