25
-7.2949108660927163e+02 frame 104   xyz file generated by TeraChem
    Mn    -0.0311646007   -0.0387590010    0.1792698251
     N    -0.3345342102    2.2606517856    0.4202467836
     H    -1.3238208715    2.5194633693    0.4475799952
     H     0.0601095044    2.6492874750    1.2806709274
     H     0.0634049390    2.8242598085   -0.3351025240
     N     2.2685938868    0.2598627020    0.3853059945
     H     2.5307542551    1.2481473440    0.3530679965
     H     2.6801191217   -0.0911631044    1.2540780739
     H     2.8116670527   -0.1810129765   -0.3612785052
     N     0.3350091109   -2.3193974861   -0.1194495124
     H     1.1769315688   -2.6709602512    0.3436830190
     H    -0.4175785806   -2.9352684951    0.1985707400
     H     0.4631157603   -2.5486814329   -1.1081180326
     N    -2.2867820200   -0.2996851038   -0.3183346445
     H    -2.5063152254   -1.2328022483   -0.6759714487
     H    -2.9168042628   -0.1742105608    0.4783857357
     H    -2.6306508393    0.3427159563   -1.0363855770
     N    -0.3835131654   -0.3306058129    2.4614921643
     H    -1.1958912552    0.1631328924    2.8397451530
     H    -0.5333225873   -1.3124136794    2.7066636437
     H     0.4007049306   -0.0314299481    3.0464951527
     P     0.3702746702    0.3982958797   -2.7794105988
     H     1.2812846337    1.3826222397   -3.2277867706
     H     0.8263469373   -0.6531942748   -3.6079658528
     H    -0.7248167857    0.7914711206   -3.5829438734
