15
-5.3951263997683111e+02 frame 642   xyz file generated by TeraChem
    Mn   -67.3020080480   85.8728958946   75.3140004858
     O   -67.0210332091   87.6966828295   74.4241053201
     H   -66.0900950611   87.5573733416   74.1763016050
     O   -65.4546442390   84.9762169822   75.0267913033
     H   -65.2675644557   84.7543558976   75.9557014203
     O    24.5397772714  -29.6646590261  -26.4695560613
     H    24.8229525204  -29.2078080744  -27.2854968312
     O   -68.6522874422   84.5329077062   74.5810938428
     H   -68.0270332996   83.8453611659   74.2924661831
     O   -67.5773343525   86.2254372611   77.3068200166
     H   -67.5314466578   87.1979188369   77.3107855647
     N    23.3891330700  -31.7530439684  -27.7044529708
     H    23.8299578201  -32.5433257402  -27.2157301766
     H    22.4498663827  -31.7393096303  -27.2858141330
     H    23.8808734933  -30.8660871720  -27.2188458759
