55
-1.2031848223746392e+03 frame 28   xyz file generated by TeraChem
    Fe    -0.0000029197   -0.0012100493    0.0027526655
     O     0.0000091699    2.1651780174    0.0026247029
     C     1.1646308988    2.9894907192   -0.2762962392
     C    -1.1645613867    2.9896000061    0.2814624889
     H    -1.9842565314    2.3114731148    0.4996441082
     H    -1.3961336024    3.6010176939   -0.5956719245
     H    -0.9599751139    3.6357742184    1.1399989200
     H     1.9843209957    2.3112858871   -0.4942600914
     H     1.3961609558    3.6010848958    0.6007263576
     H     0.9601582922    3.6354857042   -1.1349950628
     O     2.2060150889   -0.0013498772    0.0027825439
     C     3.0358461539   -0.1842409738   -1.1760921038
     C     3.0358492175    0.1821283189    1.1815787362
     H     2.3706253517    0.2490100868    2.0378809532
     H     3.6223664981    1.0997360805    1.0764567185
     H     3.7107327746   -0.6725350468    1.2922535952
     H     2.3706045552   -0.2514727435   -2.0323521637
     H     3.6229113283   -1.1015136711   -1.0710932084
     H     3.7102402283    0.6708109142   -1.2867883190
     O    -0.0000329406   -2.1677860563    0.0026351040
     C    -1.1648548179   -2.9921961689   -0.2751738005
     C     1.1647881188   -2.9921253700    0.2806685233
     H     1.9844788447   -2.3139080694    0.4985943613
     H     1.3960004343   -3.6033269563   -0.5967155924
     H     0.9607217556   -3.6385058699    1.1391728945
     H    -1.9846273605   -2.3140358833   -0.4929515119
     H    -1.3958685611   -3.6034110579    0.6022534860
     H    -0.9609088717   -3.6385596316   -1.1337191435
     O    -2.2060343210   -0.0013622802    0.0027343083
     C    -3.0358810017    0.1819931852   -1.1760765851
     C    -3.0358516253   -0.1842030568    1.1816331682
     H    -2.3705982814   -0.2514232339    2.0378805196
     H    -3.6229384551   -1.1014597051    1.0766434688
     H    -3.7102245026    0.6708676601    1.2923130617
     H    -2.3706662620    0.2488805835   -2.0323770328
     H    -3.6224600574    1.0995664025   -1.0709903824
     H    -3.7107163264   -0.6727144020   -1.2866972777
     O    -0.0000092899   -0.0012689494    2.2958318221
     C    -0.1528005553   -1.1078274394    3.1334526459
     C    -0.0986451262   -0.7148910348    4.4253148991
     C     0.1000030999    0.7115430205    4.4255410722
     C     0.1533483434    1.1049589094    3.1337947601
     H    -0.2896062611   -2.0469387989    2.6248253547
     H    -0.1879894759   -1.3558641732    5.2916393418
     H     0.2899450742    2.0442580582    2.6254554346
     H     0.1898434257    1.3521925071    5.2920545110
     O    -0.0000229538   -0.0012694755   -2.2904431123
     C     0.1531717735   -1.1078404351   -3.1279832105
     C     0.0992308675   -0.7150014312   -4.4198829889
     C    -0.0999193136    0.7113653511   -4.4202153095
     C    -0.1534772019    1.1048697062   -3.1285030233
     H     0.2899661418   -2.0469023752   -2.6192670095
     H     0.1889816238   -1.3559884422   -5.2861574165
     H    -0.2902417370    2.0441983265   -2.6202582586
     H    -0.1898901168    1.3519220381   -5.2867848354
