31
-1.9908702432825653e+03 frame 42   xyz file generated by TeraChem
    Co    -0.0819661013   -0.1515342478   -0.1686604327
    Cl     0.2661130519    2.1030589949   -0.5494915808
    Cl     2.3558221467   -0.6576161540    0.3826415766
     O    -0.6338716655   -2.4167993115   -0.2258232205
     C    -1.4108939511   -2.9427730108   -1.3012746069
     C     0.2563665070   -3.4057705868    0.3076057157
     H     0.7839418047   -2.9468020887    1.1397302932
     H     0.9745279309   -3.7287565474   -0.4562284396
     H    -0.3229531005   -4.2706083022    0.6566630743
     H    -2.0914956555   -2.1565002401   -1.6246151634
     H    -1.9872527361   -3.8107778500   -0.9541081846
     H    -0.7687508726   -3.2404299659   -2.1382990410
     O    -2.3003099775   -0.0224763586   -0.0432460190
     C    -2.9475863070    1.2463488568   -0.2504393795
     C    -2.9127499828   -0.7341191678    1.0444550139
     H    -2.3716304588   -1.6708774566    1.1617706640
     H    -3.9668070551   -0.9272129790    0.8072411302
     H    -2.8435270210   -0.1471005183    1.9672238881
     H    -2.3904727829    1.7742601897   -1.0205687822
     H    -2.9192164265    1.8388613812    0.6702479999
     H    -3.9876409490    1.0739608259   -0.5555016068
    Cl     0.3668945886   -0.4914255840    2.2339294607
     O     0.0286753808   -0.5818046520   -2.3490173378
     C     1.3411666327   -0.4371352234   -2.9217416115
     C    -0.9506229416    0.1026055115   -3.1418507247
     H    -1.9122493994   -0.0308076185   -2.6460682653
     H    -0.9852233571   -0.3417060672   -4.1446311756
     H    -0.7166497184    1.1705457471   -3.2064835175
     H     2.0150671519   -1.0596508945   -2.3350395682
     H     1.6595513006    0.6085161501   -2.8639656115
     H     1.3214885889   -0.7789917379   -3.9638960685
