13
-1.6912483456192454e+03 frame 140   xyz file generated by TeraChem
    Mn    -1.4890558668   -0.8933437889   -0.7182573560
     C    -1.4634698269    1.5162942056   -0.6166833059
     S    -1.9713076613    2.9537770885   -0.8471122224
     C     5.6904613144    0.0932365201    1.4737166936
     S     4.2460945403   -0.4072041409    1.2709154605
     C    -2.1052468276   -3.1388639096   -1.2565220324
     S    -2.9030915774   -4.2668001418   -1.9403669544
     C    -3.3511057758   -0.7065686281    0.2652770277
     N    -4.3886097124   -0.5953342126    0.7975467015
     C     0.3039673052   -1.2506528949    0.3496363402
     N     1.3083920222   -1.4305978552    0.9240380602
     C    -1.3986452961   -0.6304250431   -2.8181245836
     N    -1.3563026808   -0.4820002278   -3.9793158589
