19
-2.8163888860566494e+03 frame 145   xyz file generated by TeraChem
    Co     0.4532784104    0.2320157850   -0.1582518994
     S     0.2125329924    2.5973482092   -0.5142693140
     C    -1.2196512503    2.8015631280    0.3416574634
     N    -2.2217310203    2.8370657862    0.9534085416
     S     2.9611012616   -0.1138151703    0.0285899071
     C     3.3731867397    0.2194837121    1.6175277366
     N     3.6866833246    0.4451965928    2.7246227928
     S     0.9371523299   -2.2994036615    0.3907500907
     C     0.9724090891   -2.9815270780   -1.1391918868
     N     0.9863717888   -3.4184532074   -2.2281047653
     S    -2.0928165187   -0.3095425542   -0.6494823506
     H    -2.4493173301   -1.1775040921    0.3189927656
     H    -2.6340395871    0.7736007163   -0.0369256075
     S     0.0312381045    0.4586311047    2.4557821887
     H    -0.9728778646    1.3620074880    2.3495476755
     H    -0.8031070595   -0.5658228945    2.7345654230
     S     0.9504987573    0.0604748989   -2.7644800154
     H     0.8526521756   -1.2680698906   -3.0152062977
     H    -0.2855523497    0.3481076896   -3.2190670344
