25
-1.0895716896596173e+03 frame 134   xyz file generated by TeraChem
    Mn     0.1684433146    0.2062386677   -0.2110010723
     C    -1.2619000457    2.9589466468   -0.8042277848
     O    -0.3946730997    2.1860581853   -0.2045182447
     O    -2.5175835679    2.4684403848   -0.7312455132
     H    -2.5595212045    1.6077198304   -0.1985409901
     C     3.0695137972   -0.7786531777   -0.8046482333
     O     2.2151293771    0.1008135698   -0.4469761335
     O     2.5353853308   -2.0546090376   -0.8554276371
     H     1.5694198000   -2.0300510117   -0.6053732092
     C    -1.2140181195   -2.6279381405   -0.8888738285
     O    -0.3386431169   -1.7390060342   -0.5208178612
     O    -2.4740319871   -2.2675814111   -0.5854231366
     H    -2.5153251989   -1.3535634641   -0.1250818050
     C    -2.5484844373   -0.0386067419    2.0188281222
     O    -2.7407814182    0.0798637658    0.6600255487
     H    -3.3651978183    0.3933848105    2.6394689758
     H    -2.3792962257   -1.0804172096    2.3572422449
     C    -1.2625166494    0.7486683012    2.2185948576
     O    -0.1343398221    0.2659987558    2.0478703887
     O    -1.4335304905    2.0809106703    2.2884015843
     H    -0.7671417846    2.4410864312    1.6431350216
     C     0.5267255191   -0.8788053157   -3.2809967305
     O     0.1321744441    0.1815999020   -2.8409439899
     H     0.7972210650   -0.9735496917   -4.3572740077
     H     0.6279320872   -1.7740656593   -2.6537435046
