13
-1.6212372645861103e+03 frame 48   xyz file generated by TeraChem
    Fe     0.6209151890    0.1662104241    0.3596264067
     F    -0.6430906474    1.4223951496    0.3649416208
     F     2.3185273384    0.4824721885    0.6327421269
     F     0.2843550561   -1.5380952985    0.0858202042
     S    -3.0065835724   -0.2237233273   -0.2765778663
     H    -4.1908743204   -0.7858688544   -0.6028181893
     H    -3.5303704661    1.0147542862   -0.1936921088
     S    -0.0580095811   -0.1982725101    2.9919132588
     H    -1.3146054204   -0.5300021193    2.6247921248
     H     0.3444655036   -1.4833237915    3.0781916009
     S     0.5238059762    0.5449550237   -2.3532468954
     H     0.8578855091   -0.7095912574   -2.7209805628
     H    -0.7964173041    0.2632613371   -2.2778098967
