15
-1.9010440604189987e+03 frame 48   xyz file generated by TeraChem
    Mn    -0.0002009148    0.0008385582   -0.0068718536
     S     0.4266889198    2.6212634394   -0.3620895549
     H    -0.2486803188    2.8413150905   -1.5093068858
     H    -0.5264402684    3.1483011263    0.4345455221
     S     2.6161550379   -0.3793271938    0.4571578695
     H     3.1664290314    0.2875588690   -0.5788597153
     H     2.8718394127    0.5865624868    1.3641535686
     S    -0.4268622805   -2.6203019883    0.3488928626
     H     0.5121005838   -3.1454340387   -0.4656288221
     H     0.2671986213   -2.8463890378    1.4837234171
     S    -2.6168472663    0.3785723809   -0.4702670428
     H    -2.8675579915   -0.5767058902   -1.3897931713
     H    -3.1669362880   -0.3028912043    0.5563029428
     F    -0.2704681402    0.2688861987    1.6816255375
     F     0.2698074762   -0.2668869942   -1.6955354173
