19
-1.8546742029510269e+03 frame 172   xyz file generated by TeraChem
    Co     0.3837875991    0.4109384250    1.1990614045
     S     2.4193050602    1.4923945690    1.4987981579
     H     3.3519654899    0.1687685251   -0.4643680236
     H     2.7782284323    0.9186878039    2.6688798573
     S     3.3746570457   -0.3262816118   -1.7356208193
     H     0.8731416504    0.3406985962   -1.3693659121
     H     3.8810334541    0.8140724580   -2.2502614747
     S    -0.0508957378   -1.8376695126    1.6146903256
     H     0.6084573580   -2.3777565631    0.5649579117
     H    -2.2393387883   -1.2138065901    0.6817377647
     S    -3.2938341755   -0.4674571971    0.2189761331
     H    -4.2218215384   -1.4043570018    0.4979128001
     H    -2.0662395963    1.0785010489    2.0882150139
     N    -1.1198417615    1.3704822719    2.3467413508
     H    -1.0671451637    2.3872288246    2.2827975045
     H    -0.9792599758    1.1270980593    3.3277966671
     N     0.0323008973    0.6805000922   -0.8865988445
     H    -0.7656511730    0.1503047935   -1.2397346861
     H    -0.0973095278    1.6527236776   -1.1666394462
