23
-9.8292903086993329e+02 frame 41   xyz file generated by TeraChem
    Fe    -0.1645467607   -0.1891981087    0.0205718253
     F    -0.1557824178    1.7953487595    0.1707940810
     F     1.9383714119   -0.2199112037   -0.1406522841
     F    -0.3181409957   -2.0172985932    0.6791311790
     F    -2.1546290779   -0.2023686718   -0.7182434635
     O    -0.2093465725    0.1286120470    2.3666507504
     C    -0.1712160572    1.3595915198    2.9231602813
     C    -0.1950886013    1.2215243985    4.2840486477
     C    -0.2515535337   -0.1976092701    4.5493051232
     C    -0.2573145146   -0.8151179608    3.3286977917
     H    -0.1334904082    2.1112942221    2.1379905980
     H    -0.1742589118    2.0223293856    5.0144578224
     H    -0.2934609658   -1.8102423523    2.9061675830
     H    -0.2829041104   -0.6828733522    5.5184264546
     O     0.0959470386   -0.2585696151   -2.2679168442
     C    -0.8732859471   -0.2629005108   -3.2110118038
     C    -0.2722338953   -0.2881441197   -4.4387498249
     C     1.1554200693   -0.2980555606   -4.1986723217
     C     1.3229929209   -0.2781123979   -2.8418393204
     H    -1.8532561177   -0.2407657067   -2.7393457549
     H    -0.7726601086   -0.2967834459   -5.4010217365
     H     2.0792633077   -0.2657749242   -2.0511440115
     H     1.9417721470   -0.3149629056   -4.9453534621
