59
-1.7263872032249349e+03 frame 81   xyz file generated by TeraChem
    Cr    -0.0650824005   -0.0038232226    0.2757293453
     C     0.4603601670    4.8896815810   -0.3440947075
     C     1.4680846806    4.1379477825    0.2634809905
     C     1.2798071925    2.7734394387    0.4449896181
     N     0.1465378444    2.1253514043    0.0652660267
     C    -0.8275738900    2.8693150438   -0.5226537958
     C    -0.7069799905    4.2353234871   -0.7438004907
     H     0.5805289232    5.9576371272   -0.5007491890
     H     2.3937591763    4.5971913133    0.5949487722
     H     2.0512876854    2.1749910651    0.9141242532
     H    -1.7336197475    2.3503028232   -0.8109316128
     H    -1.5216607648    4.7728241170   -1.2182413410
     C     4.7737533162   -0.6684066947   -0.5747494836
     C     4.1203379518   -1.3719091985    0.4378452098
     C     2.7652374288   -1.1514066954    0.6520716216
     N     2.0336690150   -0.2728341962   -0.0786993823
     C     2.6829115848    0.4078870108   -1.0606471305
     C     4.0326966060    0.2382573565   -1.3367974303
     H     5.8320166111   -0.8206536410   -0.7653977885
     H     4.6489770550   -2.0864159372    1.0602555517
     H     2.2480789171   -1.6977561234    1.4285135507
     H     2.0969588194    1.1199822859   -1.6270278697
     H     4.4914166844    0.8114850280   -2.1359766329
     C    -0.9117005672   -4.8325818783   -0.3980523512
     C    -1.6655008093   -4.0997215797    0.5212614452
     C    -1.3811183006   -2.7537175410    0.7119765296
     N    -0.3860193260   -2.1066302161    0.0483431608
     C     0.3462016104   -2.8341799792   -0.8366339180
     C     0.1131443939   -4.1802359419   -1.0863332892
     H    -1.1157716255   -5.8850786807   -0.5714606238
     H    -2.4698245344   -4.5600416260    1.0858699442
     H    -1.9553946829   -2.1678302961    1.4181807339
     H     1.1517396191   -2.3200099472   -1.3455573684
     H     0.7314251024   -4.7047294054   -1.8075670864
     C    -4.9271373957    0.6867136558    0.9315615358
     C    -4.4585918755   -0.1038032372   -0.1196327502
     C    -3.0909630244   -0.2936648124   -0.2681857786
     N    -2.1707081129    0.2664702848    0.5630844728
     C    -2.6397531851    1.0330779949    1.5805093942
     C    -3.9929739464    1.2604878568    1.7958065266
     H    -5.9913485861    0.8497928611    1.0739607504
     H    -5.1397817455   -0.5742673445   -0.8212003460
     H    -2.7188609049   -0.9178790056   -1.0694678540
     H    -1.9084178434    1.4810275553    2.2384502562
     H    -4.3024700606    1.8805829496    2.6307052636
     C     0.7312715994   -0.1361879403    5.1321766763
     C     0.6295124176    1.0810875139    4.4574185737
     C     0.3984604906    1.0810823332    3.0878704944
     N     0.2645481011   -0.0564829776    2.3574372925
     C     0.3660597826   -1.2354780587    3.0253101045
     C     0.5948116054   -1.3122802344    4.3935925239
     H     0.9105371287   -0.1672053557    6.2028254070
     H     0.7258441469    2.0277262898    4.9790781185
     H     0.3103213287    2.0141870419    2.5516949442
     H     0.2585860896   -2.1425828913    2.4481758484
     H     0.6610326053   -2.2871397715    4.8656985581
     S    -0.5575890290   -0.0057553474   -2.4013752954
     H     0.5105918079   -0.5838036395   -2.9877341951
     H    -0.2582654745    1.2336987794   -2.8417974518
