31
-1.0938673879050466e+03 frame 57   xyz file generated by TeraChem
    Co     0.0001911199    0.0006880072    0.0166939616
     C     0.3351880971    2.2452822286    0.3501643734
     O     0.5606902089    3.3350021977    0.5208074809
     C     2.2397919383   -0.3622200729    0.3661909061
     O     3.3426035581   -0.4794389765    0.5598059132
     C    -0.3366808933   -2.2444533034   -0.3134858368
     O    -0.5627840168   -3.3344664235   -0.4814204248
     C    -2.2394210013    0.3659207187   -0.3321696780
     O    -3.3421450676    0.4847336021   -0.5253055056
     C    -0.8575635126   -0.6097588518    4.9745355861
     C    -1.4545314338    0.4301992940    4.2605111198
     C    -1.1854329446    0.5671643752    2.8748090837
     N    -0.3695380583   -0.2652949046    2.1858785656
     C     0.2023589630   -1.2698762868    2.8905192476
     C    -0.0134285727   -1.4751170745    4.2772125363
     H    -1.0434908831   -0.7409944227    6.0371157604
     H    -2.1220480506    1.1413347979    4.7396588955
     H    -1.6502620145    1.3796390708    2.3238704931
     H     0.8584238537   -1.9474767658    2.3520141779
     H     0.4845718899   -2.3059662330    4.7697188665
     C     0.8586464330    0.6071349545   -4.9405192378
     C     1.4520115502   -0.4347385906   -4.2262995645
     C     1.1826448925   -0.5703768105   -2.8405183196
     N     0.3696310710    0.2650585900   -2.1517766579
     C    -0.1988889027    1.2714616230   -2.8566286112
     C     0.0176035495    1.4756379812   -4.2433429583
     H     1.0449359946    0.7374649102   -6.0031505810
     H     2.1169836684   -1.1483443713   -4.7053188613
     H     1.6448741829   -1.3842091781   -2.2893866459
     H    -0.8527392426    1.9513170256   -2.3182698381
     H    -0.4774845388    2.3081292079   -4.7360212121
