14
-2.7034740372857914e+03 frame 53   xyz file generated by TeraChem
    Fe     0.0234089334    0.0601373592    0.0287152669
     C    -0.2998280594    2.2705474979    0.3296153847
     S    -0.5242095833    3.7640603183    0.4688638673
     C     2.1926102007    0.4335658467   -0.3226607439
     S     3.6748726449    0.7025695203   -0.5112036521
     C     0.3346570492   -2.1338303222   -0.3414619114
     S     0.5533682492   -3.6249115484   -0.5237498887
     C    -2.1613426140   -0.2781520746    0.2946114678
     S    -3.6484928506   -0.4850351263    0.5197078492
     C     0.3861529541   -0.2512644281    2.2556693155
     S     0.6269022247   -0.4758618606    3.7354830894
     S    -0.4061691532    0.5188611198   -2.6337488681
     H     0.5957834611   -0.1262268102   -3.2685338335
     H    -1.3477321856   -0.3744437431   -3.0059763648
