17
-8.9470713394020561e+02 frame 465   xyz file generated by TeraChem
    Co     0.0077834091   -0.0004117227   -0.0119807274
     C    -0.1187153244    1.7020537529    1.2105270168
     N    -0.1544463594    2.6544260818    1.8944939946
     C     1.1849337533    0.2232694490   -1.7358723786
     N     1.8220566075    0.3745426545   -2.7091272602
     C     0.9840666385   -1.6492324105    0.8439019805
     N     1.5054283578   -2.5701740528    1.3500138456
     C    -2.0419340698   -0.2917123472   -0.3627094486
     N    -3.1796308742   -0.4815480468   -0.5766942181
     C     1.6694954854   -0.3954340636  141.0179937593
     O     1.6856113508   -0.3954835565  139.7762009334
     O     3.0574438283   -0.3954087343  141.5307694667
     H     3.5841885911   -0.3954460349  140.6939786934
     C    -1.6714112905    0.4052719843 -141.0044210877
     O    -1.6873604307    0.4052787586 -139.7626896217
     O    -3.0594061056    0.4052641368 -141.5168069145
     H    -3.5860399399    0.4052717548 -140.6798522337
