22
-7.7584370445621028e+02 frame 106   xyz file generated by TeraChem
    Mn    -0.0088348755    0.0535061984    0.4034795768
     C    -0.1850865498    3.0900125821    0.5901643577
     O     0.4509326895    2.0489972848    0.7522627524
     H     0.2967529827    4.0504411939    0.8138171236
     H    -1.2211526075    3.0805416560    0.2286981108
     C     2.8619361564   -0.1340085248   -0.6757722822
     O     2.0918722951   -0.2958369796    0.2706717805
     H     3.9343545731   -0.3259927163   -0.5420248620
     H     2.4972352541    0.2007755428   -1.6569687344
     C    -0.5733772962   -2.6576368026   -0.7894452166
     O    -0.3820258423   -1.9879478653    0.2268185169
     H    -0.7471061734   -3.7370100011   -0.6920016850
     H    -0.5771703665   -2.1996338875   -1.7886973472
     C    -3.1571871715    0.0888630951    0.9812245286
     O    -2.0694015962    0.6107103874    0.7577205319
     H    -3.2716884005   -1.0020050523    1.0551426992
     H    -4.0485104256    0.7165343471    1.1137297962
     C     1.1108774789   -0.4673381521    3.1246238736
     O     0.1540602100   -0.2441413026    2.3804822609
     H     2.1358672390   -0.5414942360    2.7403772528
     H     0.9225254273   -0.5955060298    4.1974854066
     F    -0.2171690721    0.2697197635   -1.2681287869
