17
-2.5552877672331101e+03 frame 45   xyz file generated by TeraChem
    Cr     0.1628438205    0.0723581873    0.1077976072
     S    -0.1723575246    2.5969663726    0.5299478313
     H    -0.9862602343    2.9971574384   -0.4741787024
     H    -1.1325695133    2.6375033414    1.4836516218
     S     2.6764970714    0.4453122543    0.5942819666
     H     3.3492931070   -0.3404881425   -0.2785531198
     H     3.0005681864    1.6147072204   -0.0050570097
     S     0.6621476096   -2.4177554221   -0.2996516374
     H     0.1739254793   -2.6488751884   -1.5403997081
     H    -0.3440642437   -3.0637243274    0.3333098128
     C    -1.8706889228   -0.2036852186   -0.2171890502
     S    -3.3486278390   -0.3899270432   -0.4667110195
     S    -0.1620279368   -0.2675390048    2.6492283426
     H    -1.0272573135   -1.2939301540    2.8157460734
     H     0.9301698732   -0.9441673949    3.0774940041
     C     0.4541104595    0.4576711456   -1.9143791563
     S     0.6673151597    0.7478686532   -3.3809921980
