21
-2.0991525883695758e+03 frame 113   xyz file generated by TeraChem
    Fe     0.4719482413   -0.1731314075    0.2218302551
     S     1.0000080151    2.4681893368   -0.1262578050
     H     1.3877013530    2.4111249319   -1.4178755824
     H    -0.2788294314    2.7774005920   -0.4243733134
     S     3.0671821205   -0.6262822947    0.5231941166
     H     3.1390027605   -1.4554282101    1.5860187340
     H     3.5520018960    0.4355614141    1.2012255118
     S     0.1063714682   -2.8201633628    0.7770967417
     H    -1.2379117019   -2.8050592792    0.8953160359
     H     0.0822248021   -3.1808898288   -0.5228431143
     C    -1.9292690722   -0.0000500347   -1.1847290861
     O    -1.5700258148    0.1875212001    0.0366592648
     O    -3.2017470111    0.1353524551   -1.5815153501
     H    -3.7334910614    0.3862647326   -0.8047360332
     S     0.0497699206    0.2360019743    2.8603504161
     H    -1.1837102558    0.7432994313    2.6550265008
     H     0.6052064485    1.4337893498    3.1420439910
     C    -0.9394388538   -0.3676417523   -2.1319447940
     O     0.2903172227   -0.4952339843   -1.7289999064
     O    -1.2714735788   -0.5767457864   -3.4098897101
     H    -0.4621414752   -0.8149109428   -3.8980294175
