37
-1.1485206256166534e+03 frame 60   xyz file generated by TeraChem
    Mn     0.0729796255    0.0719908166    0.0522396438
     F    -0.4803036726    1.9794383373   -0.0460460174
     F     1.9805308059   -0.0263746952   -0.5010238800
     C     1.1043987445   -5.0946589034   -0.6620476495
     C    -0.2526312963   -4.8054229365   -0.5127720844
     C    -0.6444768068   -3.4662252019   -0.4826977758
     N     0.2160573896   -2.4482812267   -0.5926650241
     C     1.5268252374   -2.7252359256   -0.7255425985
     C     2.0067130653   -4.0368022711   -0.7674115541
     H     1.4500280204   -6.1264713649   -0.6886545161
     H    -0.9929443409   -5.5958545800   -0.4171689372
     H    -1.6897192454   -3.1892597933   -0.3621710997
     H     2.1374168098   -1.8152981835   -0.7588702070
     H     3.0730879063   -4.2188040824   -0.8741467132
     C    -5.0937302278   -0.6397585690    1.0842652818
     C    -4.0357526498   -0.7464289079    1.9862816608
     C    -2.7242534879   -0.7053974455    1.5061206757
     N    -2.4474781537   -0.5721920225    0.1953590915
     C    -3.4655409626   -0.4609793800   -0.6648766021
     C    -4.8046764975   -0.4900809890   -0.2727629992
     H    -6.1254864581   -0.6656485981    1.4301194229
     H    -4.2175940849   -0.8535012770    3.0526501020
     H    -1.8142368446   -0.7395178406    2.1165472157
     H    -3.1886925754   -0.3402101929   -1.7101229147
     H    -5.5951891355   -0.3933999696   -1.0128500848
     F    -0.0253510222   -0.4813567558    1.9597549574
     C    -0.6373490365    1.1049223098   -5.1145050118
     C    -0.7442209604    2.0067551480   -4.0564010589
     C    -0.7038433458    1.5263518593   -2.7449714886
     N    -0.5710636998    0.2155129170   -2.4683594350
     C    -0.4596498175   -0.6445612153   -3.4865387091
     C    -0.4881296136   -0.2521910539   -4.8256103620
     H    -0.6626894493    1.4509690289   -6.1462093397
     H    -0.8509129271    3.0731905717   -4.2380720632
     H    -0.7380696576    2.1366543049   -1.8348893367
     H    -0.3392048385   -1.6898853642   -3.2098515157
     H    -0.3913149681   -0.9921580695   -5.6162180012
