37
-1.0310298951898590e+03 frame 111   xyz file generated by TeraChem
    Fe     0.1590923368    0.1438301945    0.2298065689
     C    -0.4282272354    4.3759220763    0.8382490581
     C    -0.3032198929    3.0812017320    1.2577121867
     N    -0.1713953582    2.2502165643    0.1521312538
     C    -0.2141071555    3.0430333774   -0.9175996171
     N    -0.3697037046    4.3271734583   -0.5394379536
     H    -0.4313112191    5.1234493509   -1.1634000216
     H    -0.5490389210    5.3022647051    1.3787932491
     H    -0.2865612943    2.6895485654    2.2626422296
     H    -0.1306457277    2.7214467422   -1.9437410971
     C     4.4520115045    0.7287550986   -0.1909352163
     C     3.1724108817    1.1768027439   -0.0116916848
     N     2.2925633509    0.1075178722   -0.0921414552
     C     3.0386430453   -0.9726186912   -0.3153420423
     N     4.3434535521   -0.6328593840   -0.3805064698
     H     5.1129189561   -1.2728510446   -0.5381124704
     H     5.4026721625    1.2396185686   -0.2003137570
     H     2.8241031421    2.1808541336    0.1756754412
     H     2.6724557098   -1.9831302889   -0.4149817779
     O     0.0470168794   -2.0032119474   -0.1769950273
     H    -0.2425682574   -2.2059140819   -1.0818267107
     H    -0.3602529205   -2.6486739775    0.4240028839
     O    -2.2316863452    0.0234077647    0.2553665850
     H    -2.8942022382   -0.5440152586   -0.1719887755
     H    -2.5865617554    0.9265499252    0.2205861955
     C     0.7857951795   -0.4982166383    4.4515894588
     C     1.2134644758   -0.3013840065    3.1687619389
     N     0.1145922006   -0.2015416869    2.3272078141
     C    -0.9627670694   -0.3393500933    3.0998467836
     N    -0.5928395470   -0.5196466742    4.3834491135
     H    -1.2223658537   -0.6509194299    5.1664444356
     H     1.3194801729   -0.6210225814    5.3815315767
     H     2.2207983979   -0.2149058763    2.7926429351
     H    -1.9864963662   -0.3122846783    2.7594757783
     O    -0.0012981658    0.0811090844   -2.1284877858
     H     0.8592791917    0.0794372258   -2.5793810055
     H    -0.6812684134    0.1718775994   -2.8164275987
