13
-2.0405319014955764e+03 frame 93   xyz file generated by TeraChem
    Cr    -0.7462765348   -0.2573855654   -0.1103932008
    Cl    -1.1812988549    1.9593932324   -1.2126744468
    Cl     4.4752236439    0.3444842755   -1.6287740293
    Cl    -1.1750098573   -2.5305443329   -1.2845519868
     N    -2.8521839290   -0.3019374472    0.2494593346
     H    -3.1893548374   -1.1488826742   -0.2050772077
     H    -2.9589245625   -0.3540827354    1.2599273076
     H    -3.2736869953    0.5381001120   -0.1398472728
    Cl    -0.4232269937   -0.6087030067    2.4009107321
     N     1.3445745969   -0.4608436131   -0.4594701294
     H     1.9577772192    0.1748204290   -0.9925520843
     H     1.7740449935   -0.5292014276    0.4645803203
     H     1.4675694742   -1.3770143980   -0.8942843448
