48
-1.3338516654679879e+03 frame 28   xyz file generated by TeraChem
    Fe    -0.0010344541   -0.0040366740    0.1605099014
     O    -0.0520078850    2.0925721765    0.0537724184
     C     0.9679176947    2.8893912370   -0.6396212274
     C    -1.2165559054    2.9349426065    0.3646149642
     H    -1.9321622839    2.3200910293    0.9021233046
     H    -1.6422363883    3.3115730616   -0.5685892934
     H    -0.8820908450    3.7712751208    0.9841842574
     H     1.7802388581    2.2195297283   -0.9033161649
     H     1.3152276078    3.6723025444    0.0393969377
     H     0.5243820223    3.3374338709   -1.5324749405
     O     2.1078198965    0.0243105668    0.1446733907
     C     2.9672400463   -0.4376790787   -0.9513893105
     C     2.9159625088    0.6596742167    1.1944495679
     H     2.2374192769    0.9767357975    1.9796548388
     H     3.4502339203    1.5123476926    0.7686121413
     H     3.6296291603   -0.0754759301    1.5755115793
     H     2.3536775922   -1.0277845588   -1.6281123644
     H     3.7680273709   -1.0542443642   -0.5352897255
     H     3.3944583669    0.4284721006   -1.4641607866
     O     0.0495990177   -2.1000247118    0.0522457058
     C    -0.9712977607   -2.8968403887   -0.6398998952
     C     1.2134592137   -2.9431396040    0.3638550878
     H     1.9292083015   -2.3286150983    0.9015537434
     H     1.6392790849   -3.3201631016   -0.5691220927
     H     0.8781541374   -3.7791477077    0.9834167869
     H    -1.7816580660   -2.2260353350   -0.9071817854
     H    -1.3212597375   -3.6767701242    0.0411680434
     H    -0.5274090667   -3.3486169307   -1.5306811076
     O    -2.1095786703   -0.0325234293    0.1437638608
     C    -2.9683359372    0.4287740017   -0.9531243412
     C    -2.9183033957   -0.6675991562    1.1932919623
     H    -2.2401999995   -0.9835385665    1.9793428269
     H    -3.4516693180   -1.5209027880    0.7676091198
     H    -3.6327379566    0.0674078827    1.5731674033
     H    -2.3542484963    1.0181082708   -1.6300321626
     H    -3.7691786634    1.0458610126   -0.5379309972
     H    -3.3955078088   -0.4376679477   -1.4654488720
     O    -0.0014544380   -0.0038289524    2.2687194493
     C    -0.1507891122    1.1880340456    3.1195613859
     C     0.1486587493   -1.1955821437    3.1195774540
     H     0.0049625410   -2.0645759629    2.4870897659
     H    -0.6117013907   -1.1644045685    3.9039409145
     H     1.1462698638   -1.1857176878    3.5659664195
     H    -0.0065790381    2.0568517958    2.4869652064
     H     0.6095310974    1.1564095861    3.9039394360
     H    -1.1484095191    1.1787591426    3.5659479962
     C     0.0007079238   -0.0020218099   -2.1409684517
     S     0.0024243120   -0.0008755355   -3.6529366427
