21
-6.7267743987442020e+02 frame 175   xyz file generated by TeraChem
    Mn     0.4379596926   -0.2444626161    0.0341450381
     O     0.0988308919    1.5714799574    0.5659054735
     H     0.9946140477    1.9446713331    0.6071062880
     O     2.2796899816    0.0670341925    0.3295544707
     H     2.6655859948   -0.8197933203    0.2387483517
     O     0.7566780757   -2.0849262053   -0.1836324653
     H    -0.1442748607   -2.4251960168   -0.3126469785
     O    -1.3847103380   -0.6149087600    0.4616321871
     H    -1.7875871956    0.2685174690    0.4846429428
     H     0.5899967410   -0.3205385318    3.3946842694
     H    -1.0734826412   -0.3848096430    2.7487595712
     C    -0.3381047280    0.2458761057    3.2620640180
     N    -0.8142633814    0.6833770144    4.5408511613
     C    -1.2051849801    1.0453957606    5.5883298637
     H    -0.1406712324    1.0809185783    2.5680317089
     H    -0.2309821829    1.4718493106   -5.2101200224
     H     0.3750499007   -0.1706131261   -5.4884924895
     C    -0.1442630226    0.4701433895   -4.7559176290
     N     0.6273026851    0.5428571991   -3.5102375835
     C     0.2323445463    0.1886843670   -2.3944074014
     H    -1.1635516852    0.0657553608   -4.5928128994
