49
-1.3098701315700996e+03 frame 79   xyz file generated by TeraChem
    Mn    -0.0772611022    0.0180876004   -0.0722852395
     O    -0.1079805615    2.4124428863    0.0169744185
     C    -1.2320734415    3.1979717358    0.2314805710
     C    -0.9436138967    4.4910286056   -0.0447914076
     C     0.4345283616    4.5332652826   -0.4594671346
     C     0.8997503770    3.2633964311   -0.4101309987
     H    -2.1113941501    2.6624877336    0.5524537580
     H    -1.6257937571    5.3262192790    0.0295494094
     H     1.8447488509    2.7891994433   -0.6240918243
     H     0.9969062380    5.4069531911   -0.7573452636
     O     2.3464109371    0.0250950134   -0.0078278230
     C     3.3421849270    0.0231452238    0.9567507900
     C     4.5557609796    0.0876659831    0.3598479279
     C     4.3218312903    0.1347002281   -1.0602491822
     C     2.9808290727    0.0941891308   -1.2430068178
     H     3.0017482809   -0.0231197426    1.9788528820
     H     5.5130265628    0.1016643105    0.8621167193
     H     2.3029469482    0.0948547333   -2.0836623441
     H     5.0687675893    0.1894841537   -1.8397225801
     O    -0.0130159250   -2.3879762953   -0.0166156131
     C     1.1135041935   -3.1710430541   -0.2251900275
     C     0.7408274883   -4.4198306685   -0.5887234987
     C    -0.6985536816   -4.4348641440   -0.6187292799
     C    -1.1131152342   -3.1946655834   -0.2706431578
     H     2.0541888507   -2.6664637954   -0.0741193157
     H     1.4040942570   -5.2430704967   -0.8139102450
     H    -2.0726972840   -2.7136821328   -0.1629873119
     H    -1.3343059203   -5.2719769826   -0.8705833032
     O    -2.4418994687   -0.0133867716    0.5975902321
     C    -3.1382005657   -0.1593639749    1.7878186599
     C    -4.4650748056   -0.2543918226    1.5363701132
     C    -4.6267125644   -0.1666285798    0.1087162854
     C    -3.3890476315   -0.0226836051   -0.4207268368
     H    -2.5405930566   -0.1699500563    2.6847368610
     H    -5.2464381712   -0.3729519695    2.2740840933
     H    -2.9674409655    0.0765850400   -1.4087054985
     H    -5.5546749705   -0.2054969002   -0.4443730839
     O     0.0973525395   -0.0008734950    2.1950163555
     C     0.2474283717   -1.1318678427    2.9917128227
     C     0.5762209407   -0.7585102920    4.2495721427
     C     0.6444644826    0.6804102790    4.2591054972
     C     0.3526343581    1.0995941093    3.0066659721
     H     0.0771795275   -2.0678307718    2.4853760464
     H     0.7493528846   -1.4223468255    5.0849330470
     H     0.2700943028    2.0553304473    2.5154888121
     H     0.8789120147    1.3137390040    5.1031293779
     N    -0.3613073323    0.0422891182   -1.9658076893
     H    -0.4896184677    0.8767674469   -2.5320231677
     H    -0.4565503254   -0.7687436656   -2.5711002692
