34
-8.3766405329879899e+02 frame 70   xyz file generated by TeraChem
    Co     0.1693097917    0.1299558189    0.1291388719
     O    -0.3160539098    1.9081991731    0.2652996811
     H     0.4472613341    2.3879970561    0.6247674085
     O     2.0187517055    0.2907534507   -0.0251375700
     H     2.2205255975    0.5178975004   -0.9484493249
     O    -0.1695407249   -1.6479011467   -0.1813751849
     H     0.7001010272   -2.0735455589   -0.2659065524
     O    -2.4338749320   -0.0851375242    0.2088961019
     C    -3.2255763089    1.0900725502    0.1314397175
     C    -3.1608136291   -1.2731668178   -0.0568521641
     H    -2.4358635829   -2.0853147836   -0.0236551163
     H    -3.6279434628   -1.2336545428   -1.0532773003
     H    -3.9520276068   -1.4257200368    0.6938163120
     H    -2.5527213608    1.9229086604    0.3335733063
     H    -4.0420311512    1.0640257353    0.8705199205
     H    -3.6678883657    1.1981607992   -0.8714086797
     O     0.3686645591   -0.0737679991    2.3305766385
     C     1.6401356894   -0.5000418756    2.8242306292
     C    -0.7258069099   -0.7108821315    2.9860433326
     H    -1.6365866773   -0.3098302193    2.5426426906
     H    -0.6948703405   -0.4896313522    4.0612044282
     H    -0.6902961298   -1.7967225539    2.8285892409
     H     2.3897795491    0.0011468537    2.2148034929
     H     1.7488176958   -1.5889461837    2.7243288651
     H     1.7362990261   -0.2198896121    3.8815372924
     O     0.1329998282    0.4688144679   -2.2822796519
     C    -0.1402808413   -0.6162161175   -3.1564704431
     C    -0.3074870657    1.7255728050   -2.7824511331
     H    -0.2036665430    2.4255764637   -1.9545424784
     H    -1.3640929614    1.6734057090   -3.0829737948
     H     0.2968567524    2.0323290174   -3.6483842278
     H     0.1165973863   -1.5269490452   -2.6171268682
     H     0.4511745852   -0.5302837057   -4.0796444806
     H    -1.2080706957   -0.6462663340   -3.4168455348
