40
-2.1394853111736256e+03 frame 35   xyz file generated by TeraChem
    Cr    -0.1972889005    0.0001837196    0.0022537895
     C     0.1333803717    2.0947691579    0.3700118084
     S     0.3619564281    3.5657429441    0.6818966776
     C     2.9377754723   -0.0046702243   -0.0015124265
     S     4.4682064411   -0.0080336728   -0.0071377558
     C     0.1317316432   -2.0950256725   -0.3651943490
     S     0.3590928567   -3.5663614083   -0.6762742161
     C    -5.3994173557    0.0009548977    0.0008180861
     C    -4.6873309955    1.1107327046   -0.4573005857
     C    -3.2968929384    1.0662551142   -0.4414124446
     N    -2.5962919788    0.0000569109    0.0017438252
     C    -3.2978492096   -1.0656991897    0.4444278083
     C    -4.6883262605   -1.1092732186    0.4593936054
     H    -6.4851718568    0.0012967239    0.0004688290
     H    -5.1966298333    1.9969075113   -0.8213934049
     H    -2.7124828780    1.9096677205   -0.7983400271
     H    -2.7141944638   -1.9094698995    0.8017501361
     H    -5.1984317174   -1.9951135626    0.8231687361
     C     0.0297441800   -0.6372664247    4.8862019908
     C     1.0555705755   -1.1039491839    4.0628859526
     C     0.9504822825   -0.9225729771    2.6894523177
     N    -0.1103008124   -0.3141994796    2.1123845210
     C    -1.1010595398    0.1356970844    2.9162919538
     C    -1.0672090629   -0.0056849299    4.2980577926
     H     0.0840522672   -0.7632278476    5.9632129307
     H     1.9266951750   -1.6025517821    4.4742955949
     H     1.7297329261   -1.2675481725    2.0196599176
     H    -1.9375350510    0.6132798325    2.4197540488
     H    -1.8880132658    0.3739156246    4.8971360317
     C     0.0285957160    0.6387498500   -4.8818744386
     C     1.0535577627    1.1072784159   -4.0585316039
     C     0.9488836153    0.9253914230   -2.6851344964
     N    -0.1106163022    0.3147803835   -2.1080857998
     C    -1.1005370733   -0.1368293174   -2.9120386126
     C    -1.0670761842    0.0049027053   -4.2937869239
     H     0.0825762361    0.7650580851   -5.9588609958
     H     1.9236527300    1.6077252595   -4.4698820147
     H     1.7274847911    1.2718468954   -2.0153521599
     H    -1.9360886616   -0.6160802697   -2.4155490841
     H    -1.8871970956   -0.3761515030   -4.8928776725
