19
-1.3804609873825921e+03 frame 172   xyz file generated by TeraChem
    Fe    -0.1711889258    0.4707678097    0.2576295436
     O    -1.7763086224    1.0986039230   -0.5304720299
     H    -1.6381847324    1.2723092988   -1.4732261203
     O     1.4851146339    0.7066191059   -0.6216142076
     H     2.0264374619   -0.0960933063   -0.5729217477
     P     0.7990007257   -2.8506935142    2.6488696121
     H     1.1537139531   -2.6795508773    1.2880421705
     H     1.6868933978   -1.8631107233    3.1399807273
     H     1.7573404279   -3.9178361639    2.8396979589
     P    -4.1318830180   -0.3976390774   -0.8648169325
     H    -5.3143752810   -1.1761167976   -0.5671445061
     H    -3.3004012518   -1.2120094254   -0.0580221382
     H    -4.4104739741    0.5497640973    0.1504392285
     O    -0.3295805888   -0.3716753046    1.9440212296
     H    -1.2456892316   -0.6491215474    2.0936681699
     P     2.0569183486    1.5238875584   -3.9081700451
     H     1.8000103565    1.2106478259   -2.5250106761
     H     1.8159342316    2.9222661356   -3.7588892760
     H     0.7242092080    1.2554006236   -4.3398624803
