22
-1.9026017350738371e+03 frame 255   xyz file generated by TeraChem
    Fe     0.0133652263   -1.2118621791    0.8767436865
     C    -3.5007807683    1.5681038703   -2.7862526873
     N    -3.9740748780    2.4906637192   -3.3113485968
     C    -2.9104423882    0.4044343462   -2.1310178593
     H    -1.8263054286    0.3625882846   -2.2834077801
     H    -3.3476156973   -0.5159332101   -2.5321040474
     H    -3.0828085573    0.4216312225   -1.0496487800
     C     1.8773011884    1.2992103440    1.9742988658
     N     1.1473047236    0.4532918375    1.6759514550
     C     2.8209229986    2.3499723760    2.3313746986
     H     2.5302271629    3.2891206529    1.8503132443
     H     3.8179964044    2.0538821532    1.9851290285
     H     2.8346313005    2.4921950581    3.4164442979
     C     4.5517720637   -0.5057680856    0.3859034400
     N     5.1014386297    0.4034124121    0.8579021128
     C     3.8528305860   -1.6418030651   -0.2044208998
     H     3.3864130651   -2.2514696065    0.5785340560
     H     4.5524544343   -2.2565748015   -0.7803200583
     H     3.0428022503   -1.2927444470   -0.8581217679
    Cl    -2.2237948886   -0.7958702417    1.2907040200
    Cl     1.0653342139   -3.0353020923    1.8371979700
    Cl     0.4922123056   -0.8293874652   -1.4389856219
