19
-1.5720109622704124e+03 frame 53   xyz file generated by TeraChem
    Co    -0.0134174184   -0.0026269062   -0.0332755602
     S     0.4213079433    2.5972260567    0.3492743629
     H    -0.1919197626    3.2741438647   -0.6438457282
     H    -0.3734563134    3.0750158813    1.3302776605
     S     2.5176337287   -0.3202289599   -0.5929599547
     H     3.0425682990   -1.2115340628    0.2731952988
     H     3.1778348465    0.7431027922   -0.0860229721
     S    -0.5046510535   -2.5894378023   -0.4015092086
     H     0.2324556353   -3.0562287329   -1.4311829934
     H     0.1915246640   -3.2408334195    0.5525468301
     O    -2.0849488389    0.1901143041    0.3784893781
     H    -2.7211845518   -0.5405622845    0.2727888658
     H    -2.6004088398    1.0151094764    0.3754647038
     O     0.1494048750   -0.3814987350    2.0227145657
     H    -0.5635224775   -0.1488272889    2.6439824509
     H     0.9516518143   -0.5446624231    2.5484848746
     O    -0.2068889276    0.4202822603   -2.0822268431
     H     0.3689097409    0.0710952801   -2.7868345199
     H    -1.0426010084    0.6843040201   -2.5069691900
