21
-9.9438703048280649e+02 frame 60   xyz file generated by TeraChem
    Cr    -0.0490251047   -0.0015518872    0.0464591942
     C    -0.6207397609    3.0113948935    0.5609416042
     O     0.1227697024    1.9685120355    0.6228700065
     O    -1.9287029332    2.7439551440    0.2390088644
     H    -2.0505689959    1.7412891154    0.1758510027
     C     3.1044282689   -0.7811497714   -0.1809488830
     O     2.0924762387   -0.0362179130    0.0158326359
     O     2.7808299734   -2.1234210315   -0.3327354311
     H     1.7890749120   -2.2069978874   -0.2671880325
     C    -0.8638906916   -2.9672359472   -0.6445508559
     O    -0.0418481762   -2.0598802890   -0.2774115898
     O    -2.1599956022   -2.5121825205   -0.7385131929
     H    -2.1645884149   -1.5404696323   -0.4676624385
     O    -1.9998583639    0.0458217224    0.2222075191
     H    -2.0617566779   -0.2041600774    1.1626501144
     C     0.0028863770   -0.1226202270    3.3504598407
     O    -0.2049958900   -0.5536649807    2.1756704706
     O     0.5774703820    1.1474893198    3.3764206707
     H     0.6405230898    1.4687219143    2.4396431815
     O     0.1142009290    0.3590431574   -1.7847487556
     H     1.0779939278    0.4222761629   -1.8934007514
