28
-1.6998735054788042e+03 frame 77   xyz file generated by TeraChem
    Mn     0.0168216183    0.1605288003    0.3143326928
     H     1.4616165603    4.9952707454   -1.2978357373
     H    -0.2816901354    5.0788031788   -1.6916621940
     C     0.4495939211    4.8462211745   -0.9136431295
     N     0.2974160884    3.4758864964   -0.5279912359
     C     0.1784319540    2.3617046882   -0.2243928958
     H     0.2832195271    5.4824597257   -0.0410849165
     H     5.3154774516    0.0133979297   -0.2330905720
     H     4.9859810726   -1.7363023445   -0.0420839285
     C     4.7053607595   -0.8254680565   -0.5765253181
     N     3.3278767550   -0.5377516971   -0.3116933933
     C     2.2099873703   -0.3079291471   -0.0990576049
     H     4.8370962027   -0.9677660394   -1.6519016517
     S    -0.3676309691   -2.6102285791    0.6090578356
     H    -1.6882361992   -2.8809533314    0.5399413803
     H    -0.2711096868   -2.9100210257    1.9213259195
     S    -2.7912094110    0.3337185929    0.5363856078
     H    -3.0399525774    0.2955242956    1.8619081178
     H    -3.1115630365    1.6387910890    0.4137229293
     H     0.3899827244    1.8835459707    5.3347722365
     H     0.2027035472    0.1338133215    5.6616159023
     C     0.7436538701    0.8821995143    5.0773375052
     N     0.5062752418    0.6480202014    3.6846210888
     C     0.3189771963    0.4610454165    2.5538297209
     H     1.8159544240    0.8037245063    5.2724546114
     S    -0.4198540625   -0.2994219624   -2.4254942312
     H     0.0620378436   -1.5389660669   -2.6567033407
     H    -1.7082780914   -0.6614862988   -2.6043181108
