29
-8.6821873798861452e+02 frame 77   xyz file generated by TeraChem
    Co    -0.0161457552    0.0080027001    0.1207523667
     C     0.2081120232    3.0375718732    0.6644546706
     O    -0.4888255748    2.0483370703    0.4731052293
     H     1.3030816510    2.9680930612    0.7275214685
     H    -0.2639156485    4.0229933312    0.7787417279
     C     3.0012318788   -0.1576954914    0.6840076711
     O     2.0069882427    0.5245324490    0.4644903747
     H     2.9525302888   -1.2552834983    0.6951213179
     H     3.9680546294    0.3278500098    0.8732946297
     C     0.0409378396   -3.0597529871   -0.5430547965
     O     0.5574454780   -2.0464765060   -0.0928187675
     H    -0.9693142249   -3.0447423315   -0.9776002568
     H     0.5842855145   -4.0143942635   -0.5199194004
     C    -3.2415888359   -0.4098834392   -0.3838495074
     N    -2.1047507577   -0.3779329768   -0.1610693042
     C    -4.6700787905   -0.4485385992   -0.6620549412
     H    -5.1166741750   -1.3384500135   -0.2059501693
     H    -4.8378774277   -0.4784174758   -1.7437900841
     H    -5.1515811477    0.4450353369   -0.2507317569
     C    -1.0316433265   -0.3015205540    3.0509300512
     O    -0.1564272692   -0.3522290775    2.1976816086
     H    -0.8017784418   -0.5693706661    4.0911889424
     H    -2.0576813195    0.0107520380    2.8063784160
     C     0.5237746934    0.5597141277   -3.0762066497
     N     0.3317031245    0.3313799719   -1.9571173001
     C     0.7664515008    0.8467706986   -4.4829512915
     H    -0.1755318148    0.8053633702   -5.0395860260
     H     1.4610135187    0.1093941922   -4.8989901886
     H     1.2011244466    1.8462186528   -4.5889169849
