19
-9.1823675762943185e+02 frame 982   xyz file generated by TeraChem
    Fe   -98.0613162165 -136.3159761043   12.7256789599
     C   -38.1176206047  133.6792764610   -8.7671706479
     O   -36.9594175941  133.3732953412   -8.4392079566
     O   -38.9037533524  132.4496181320   -9.0065357801
     H   -38.2362231456  131.7427609304   -8.8255785802
     C   140.0480279513    6.7746697467   -4.0488014549
     O   139.5319775355    7.9043591368   -4.0487658358
     O   138.9874836378    5.7452611960   -4.0487801498
     H   138.1664022824    6.2966368614   -4.0487376528
     C   -99.1781717307 -139.2695965925   13.0441871119
     O   -98.1940816107 -138.4730640885   12.9382526393
     O  -100.4134128001 -138.6434954050   12.9124077437
     H  -100.2649184137 -137.6521271926   12.7655647910
     O   -99.9944351093 -135.9310459406   12.4040105333
     H  -100.0638970899 -136.0227232521   11.4365336834
     O   -97.1905448293 -136.0137250728   14.4773311755
     H   -96.8613002883 -136.9154352022   14.6311818968
     O   -96.9359548717 -135.6180202007   11.2518152484
     H   -96.6933049062 -134.7427516959   11.6006969524
