9
-2.9373795295988843e+03 frame 714   xyz file generated by TeraChem
    Co    -0.0906726933   -0.6465468626   14.5596561119
    Cl    -0.5429990589    1.5511712735   13.4476336223
    Cl     1.9839515618   -1.0562086660   13.5090439870
    Cl    -1.6878908621   -2.2413015075   13.9494881594
    Cl    -2.5763499923    3.3702787934   13.9806091065
    Cl     0.2085745490   -0.3530508857   16.8592372697
     S     0.8205010590   -1.7959560302  -25.7627584970
     C    -0.0450227429   -0.3600861983  -25.7187133184
     N    -0.6555407628    0.6501770923  -25.6881068758
