22
-1.8696537656960909e+03 frame 198   xyz file generated by TeraChem
    Mn     0.2901602447   -0.7095743768   -1.2622431237
     C     0.7780344813    2.0874211642   -0.8576221353
     O    -0.1199062779    1.1689954053   -0.8975368370
     O     0.7916006083    3.1824425952   -0.3425284193
     H    -0.6889905203    3.0331768871    1.0993452129
     C     3.2550845420   -1.3063552355   -1.6182520504
     O     2.4196678491   -1.0049767194   -0.7722569994
     O     4.5554281208   -1.2978040516   -1.3902128251
     H     4.7065620522   -0.9995147698   -0.4698212039
     S    -2.2687542950   -4.7523007517    0.5680532127
     H    -2.1649948107   -4.0958847672   -0.6061919673
     H    -3.5938243866   -4.9655578278    0.4303834409
     S    -1.5475464548    2.6705586548    2.0891290385
     H    -0.7950233260    3.2208981366    3.0646818810
     H    -1.1231749071   -0.1079164811    1.6902264693
     C    -1.2089033990   -1.1617478224    1.3963295648
     O    -0.6243481991   -1.6585438811    0.4282861564
     O    -2.0094027057   -1.8490119751    2.1726541443
     H    -2.0891156276   -2.7752058243    1.8191681325
     S     0.0301261509   -1.9032039181   -3.2994115633
     H     3.0038769552   -1.6112638504   -2.6393692806
     H     0.1742744389   -3.1436963612   -2.7733043619
