47
-1.1723604391935630e+03 frame 0   xyz file generated by TeraChem
    Co    -0.0496075036   -0.0649233935   -0.1234685887
     C     0.5153830053    3.1753645487    0.4580075456
     N     0.3373624299    2.0644142558    0.1846338102
     C     0.7372652712    4.5748963554    0.7998578419
     H     0.5871590292    5.2047847917   -0.0827778739
     H     1.7592454233    4.7128843877    1.1668146061
     H     0.0338624466    4.8829696478    1.5800953059
     C     3.2385871243   -0.5680495626   -0.5564158939
     N     2.1109408360   -0.3584985915   -0.4017899487
     C     4.6593555454   -0.8293174136   -0.7523800410
     H     5.2196482219    0.1106023426   -0.7250974448
     H     4.8198164769   -1.3110986421   -1.7221262125
     H     5.0311289780   -1.4881442927    0.0386726050
     C    -0.4207942430   -3.3694212177   -0.5530577636
     N    -0.3529380069   -2.2262821277   -0.3821092084
     C    -0.5093652095   -4.8083197631   -0.7697649106
     H     0.4731164559   -5.2051708165   -1.0442915856
     H    -1.2175182404   -5.0227282577   -1.5764738107
     H    -0.8507088893   -5.3042774521    0.1444188454
     C    -4.8780576345    0.6533755849    0.6869850434
     C    -4.1562623344    1.5142840385   -0.1406477530
     C    -2.8054633475    1.2632890147   -0.3538458390
     N    -2.1595087237    0.2194602990    0.2045506431
     C    -2.8629940285   -0.6078099315    1.0033218830
     C    -4.2161244928   -0.4284514501    1.2689125514
     H    -5.9343151267    0.8214862925    0.8739320326
     H    -4.6287598945    2.3672790217   -0.6161110900
     H    -2.2112268798    1.9065031511   -0.9939114741
     H    -2.3141949557   -1.4374710876    1.4355444351
     H    -4.7366430826   -1.1244750113    1.9182054512
     C     0.4726215651   -0.5799220599    3.1420886887
     N     0.2807455580   -0.4404524572    2.0093146268
     C     0.7118420510   -0.7579779611    4.5690054159
     H    -0.2355514691   -0.7101383206    5.1152472595
     H     1.3753432077    0.0304498229    4.9380496055
     H     1.1793018212   -1.7308801141    4.7510154611
     C    -0.5609631754    0.5861346682   -5.0130916835
     C     0.4153060159    1.2862077551   -4.3032574991
     C     0.5165144234    1.0891021004   -2.9303757488
     N    -0.2913798665    0.2508567872   -2.2506640131
     C    -1.2318989493   -0.4229737752   -2.9436129352
     C    -1.3995310128   -0.2852350919   -4.3170077222
     H    -0.6660073362    0.7168775066   -6.0858300590
     H     1.0897968160    1.9740680261   -4.8021076886
     H     1.2648588173    1.6118214754   -2.3448671377
     H    -1.8679734313   -1.0856522794   -2.3669583775
     H    -2.1735955610   -0.8494732245   -4.8263028908
