19
-1.1090500924220823e+03 frame 140   xyz file generated by TeraChem
    Cr    -0.0626964558    0.4639100375    0.1915014287
     N    -0.9205607296    1.9198102115    0.9506563052
     H    -0.9665400803    2.8541193185    0.5446112372
     H    -1.7593701372    1.7638133979    1.5341901259
     N     1.3905017408    1.6412203254   -0.8057627272
     H     1.1371787568    2.6295500240   -0.8290439425
     H     2.3142743719    1.5948721560   -0.3728674827
     N    -0.0775395519   -0.7825088450   -1.1766772798
     H    -0.7685988085   -1.5223446075   -1.3007547443
     H     0.3109455963   -0.5238932813   -2.0993848802
     S    -3.4368058883    0.6062462181    3.0509838211
     H    -2.7198223338    0.9179687094    4.1614523131
     H    -1.8141217513   -0.3781858683    2.0892025047
     N    -0.9527311634   -0.8152132152    1.6257479417
     H    -0.3177232557   -1.0511402609    2.3901223040
     H    -1.2438573088   -1.7019472208    1.2137930359
     S     1.7480587028    0.6503903185   -3.8294823305
     H     1.5246866869    1.3346999598   -1.8225947353
     H     2.8098458400   -0.1485230412   -3.5496079576
