23
-9.5599706068522687e+02 frame 177   xyz file generated by TeraChem
    Mn     0.6675267788    1.7006824408   -0.1118085992
     F     0.3701811552    3.4174417971   -0.4010522526
     F     1.2516500266    1.4807261407   -1.8870173117
     F     0.7283835800   -0.1088057174    0.0462851103
     C    -3.3276592124    1.4614212170   -1.9425296152
     C    -2.4463109725    2.2275990722   -1.2272078966
     N    -1.6395037724    1.4144556911   -0.4607823607
     C    -2.0191151316    0.1776405165   -0.7058854827
     N    -3.0583497858    0.1488963241   -1.5817175511
     H    -3.3386942921   -0.6749659331   -2.0981386562
     H    -4.1038653439    1.7098964933   -2.6505906942
     H    -2.3079939363    3.2986119212   -1.2170561191
     H    -1.5244693867   -0.6976067394   -0.3177236714
     F     0.9445459010    1.9600744239    1.6140950161
     C    -0.0024839650   -1.8235990621   -2.3422372059
     C    -0.9601382847   -2.5402132238   -3.0252505359
     N    -1.5179484865   -1.7725783832   -4.0307752205
     C    -0.8818296372   -0.6110084830   -3.9386466323
     N     0.0399782863   -0.5916836005   -2.9440773881
     H     0.5690631675    0.2367148288   -2.5725089544
     H     0.6008410613   -2.0224316120   -1.4703062660
     H    -1.2781107627   -3.5627306606   -2.8594915620
     H    -1.0644746228    0.2507007558   -4.5677115372
