39
-1.9118169020294899e+03 frame 55   xyz file generated by TeraChem
    Cr    -0.0182051212    0.0007323854   -0.0328408698
     C     0.5731430798    4.3180470640   -0.1301556600
     C     0.3302048266    3.1143823466   -0.7327801704
     N     0.3319691160    2.1173581547    0.2248965807
     C     0.5700066430    2.6996567960    1.3886823559
     N     0.7229544011    4.0362496590    1.2176208614
     H     0.9123459173    4.7025799859    1.9516995715
     H     0.6527607384    5.3209582953   -0.5199041573
     H     0.1525541096    2.8653920887   -1.7692470269
     H     0.6341745905    2.1769399292    2.3343848963
     C     4.0694408360   -0.5039109579   -1.4546460834
     C     2.7365866676   -0.2694005719   -1.6528028399
     N     2.0816022044   -0.3098984747   -0.4361123282
     C     2.9950956332   -0.5619704261    0.4868256053
     N     4.2163239951   -0.6875362161   -0.0895457245
     H     5.0779800413   -0.8794335150    0.3997119124
     H     4.9051307111   -0.5564212409   -2.1350462532
     H     2.1805890852   -0.0753083188   -2.5589357326
     H     2.7881150677   -0.6511249115    1.5455701868
     C    -0.7837584864   -4.1342774523   -1.1310338355
     C    -0.6260898560   -2.8051729748   -1.4143209854
     N    -0.3710818007   -2.1177595368   -0.2417849922
     C    -0.3728279718   -3.0079228091    0.7361796317
     N    -0.6194252297   -4.2452261687    0.2400674809
     H    -0.6749275486   -5.0935930067    0.7840189342
     H    -0.9909530445   -4.9890843379   -1.7559575162
     H    -0.6761101598   -2.2777667656   -2.3567220450
     H    -0.1968614697   -2.7667900521    1.7762441885
     C    -4.1143628387    0.5174977645    1.3823313588
     C    -2.7839978437    0.2810080793    1.5955176457
     N    -2.1160925289    0.3112994276    0.3858351579
     C    -3.0193462305    0.5592566195   -0.5484862051
     N    -4.2458219803    0.6917885079    0.0146387137
     H    -5.1012176964    0.8830612252   -0.4857934663
     H    -4.9571600305    0.5768006612    2.0534232426
     H    -2.2397572168    0.0915924806    2.5096165759
     H    -2.7986414709    0.6415626003   -1.6054199512
    Cl     0.4615415569   -0.4121221021    2.7148856844
    Cl    -0.4871902367    0.4127592229   -2.7318641649
