55
-1.0532153089506583e+03 frame 24   xyz file generated by TeraChem
    Fe     0.0000231948   -0.0010421192    0.0185154984
     O     0.0001875208    2.1837022392    0.0183081677
     C     1.1730334943    3.0066800597   -0.2189335352
     C    -1.1726473878    3.0067108263    0.2555223028
     H    -2.0028663569    2.3252145881    0.4172722525
     H    -1.3603225054    3.6364365838   -0.6194826922
     H    -1.0095825183    3.6349364889    1.1359344517
     H     2.0032936384    2.3251601830   -0.3802978441
     H     1.3605146148    3.6367201206    0.6558834578
     H     1.0101129412    3.6345868362   -1.0996057358
     O     2.2187851115   -0.0010716789    0.0184249459
     C     3.0424525437   -0.1139106105   -1.1690822769
     C     3.0425027091    0.1113624465    1.2059582115
     H     2.3647749585    0.0842967311    2.0539788647
     H     3.5993068805    1.0533195270    1.1833872586
     H     3.7445990342   -0.7273334243    1.2532655196
     H     2.3648041478   -0.0856820975   -2.0171291881
     H     3.5981708941   -1.0565226681   -1.1469454796
     H     3.7454980041    0.7240053023   -1.2159629172
     O    -0.0001263405   -2.1860108629    0.0186839993
     C    -1.1729486450   -3.0089431348   -0.2186736184
     C     1.1727607581   -3.0089770153    0.2556223638
     H     2.0030186827   -2.3274468835    0.4170176915
     H     1.3601635753   -3.6388798929   -0.6193106362
     H     1.0100014677   -3.6370138426    1.1362336085
     H    -2.0032069647   -2.3273833703   -0.3799273512
     H    -1.3604361180   -3.6391294367    0.6560395685
     H    -1.0100942857   -3.6367059861   -1.0994629981
     O    -2.2187569851   -0.0011588755    0.0186375695
     C    -3.0425911129    0.1112511459   -1.1688207039
     C    -3.0423990360   -0.1143287180    1.2061210641
     H    -2.3647130457   -0.0866959325    2.0541596455
     H    -3.5984258956   -1.0567496957    1.1835735119
     H    -3.7451672329    0.7237989147    1.2534214348
     H    -2.3649386630    0.0842590796   -2.0169021169
     H    -3.5994508278    1.0531716916   -1.1461580760
     H    -3.7446265238   -0.7274962112   -1.2161029679
     O    -0.0000420068   -0.0008832973    2.3076909276
     C     0.1786452424    1.1782816136    3.1256730485
     C    -0.1784812097   -1.1801630682    3.1255635063
     H    -0.3252172673   -2.0147304388    2.4429351426
     H    -1.0526460153   -1.0606012045    3.7737788764
     H     0.7118942672   -1.3475159517    3.7409831648
     H     0.3248148255    2.0129501067    2.4430625407
     H     1.0532665874    1.0588256560    3.7732995249
     H    -0.7113785735    1.3453293829    3.7416676434
     O    -0.0000035196   -0.0011798832   -2.2705867871
     C    -0.1793793364    1.1778696288   -3.0885436550
     C     0.1792519537   -1.1802520060   -3.0885030772
     H     0.3265660125   -2.0147589714   -2.4059327154
     H     1.0533472446   -1.0601127988   -3.7367145150
     H    -0.7110033658   -1.3481947158   -3.7039341234
     H    -0.3263310330    2.0124706197   -2.4060006536
     H    -1.0537157223    1.0577854961   -3.7364424978
     H     0.7106865698    1.3455888891   -3.7043045598
