31
-8.6171665219000351e+02 frame 74   xyz file generated by TeraChem
    Mn    -0.0007898402    0.0027544224   -0.0258561203
     O     0.0812205103    2.2317680677    0.3178020637
     H     0.3119930450    2.8638175764   -0.3838220202
     H     0.3557444462    2.6291089869    1.1615032601
     O     2.2690467369   -0.4625136709   -0.0814692102
     H     2.4692736201   -1.3756307723   -0.3489124763
     H     3.0770336556    0.0598937371   -0.2196334462
     O    -0.0827150387   -2.2263316870   -0.3695025479
     H    -0.3594165201   -2.6236036815   -1.2125306116
     H    -0.3145094331   -2.8572979792    0.3327726866
     O    -2.2711716367    0.4659207177    0.0286272294
     H    -3.0794114484   -0.0547142131    0.1718610242
     H    -2.4712276287    1.3819571876    0.2861260791
     C    -0.5541643281   -0.5665987099    4.2854277026
     C    -1.0014847553   -0.3032591388    3.0216280785
     N     0.0656274144   -0.3375277849    2.1327995572
     C     1.1441345100   -0.6197586443    2.8644016268
     N     0.8052574979   -0.7631824332    4.1606642366
     H     1.4443193011   -0.9793290627    4.9172881023
     H    -1.0637351914   -0.6301442061    5.2348289032
     H    -2.0042955999   -0.0903527167    2.6869545400
     H     2.1501585257   -0.7235756736    2.4884202570
     C     0.5520679003    0.5806538741   -4.3363919795
     C     1.0002047293    0.3191253984   -3.0725115264
     N    -0.0677922990    0.3452749676   -2.1844286876
     C    -1.1476079097    0.6208720617   -2.9165910875
     N    -0.8087548543    0.7678186640   -4.2124796248
     H    -1.4486769651    0.9803877754   -4.9693892625
     H     1.0619116389    0.6485719920   -5.2853441343
     H     2.0041625835    0.1126522262   -2.7372557927
     H    -2.1546077791    0.7175022005   -2.5413355169
