35
-2.5472788687681928e+03 frame 58   xyz file generated by TeraChem
    Cr    -0.0054101679   -0.0075223981    0.0191097183
     S     0.4633569057    2.4190899259   -0.3212339643
     C    -0.6104356439    3.2341620436    0.6937890178
     N    -1.3019808141    3.8392605715    1.4202506523
     S     2.4517506000   -0.2983617562    0.3711018957
     C     2.9004861550   -1.5978216713   -0.6081470458
     N     3.2642271368   -2.4592602546   -1.3136526164
     S    -0.4942521338   -2.4280297701    0.3735248110
     C     0.3111488114   -2.8530883724    1.7945630644
     N     0.8102921758   -3.1774765216    2.8033263852
     S    -2.4575916308    0.2649117237   -0.3592130236
     C    -2.6140209971    1.2023033373   -1.7546086709
     N    -2.7764774451    1.8050384912   -2.7457203819
     C    -0.6229885801    0.8039440682    4.8422908942
     C     0.4778835597    1.3242854714    4.1674010258
     C     0.6154704872    1.0719462867    2.8076323942
     N    -0.2706122340    0.3331540819    2.1131114193
     C    -1.3319315588   -0.1717347950    2.7703342018
     C    -1.5440607731    0.0435337028    4.1268375784
     H    -0.7602729026    0.9872107647    5.9044472431
     H     1.2241208664    1.9267629036    4.6742217921
     H     1.4472388766    1.4793610901    2.2464146197
     H    -2.0139793045   -0.7785998873    2.1884182610
     H    -2.4175325223   -0.3890865334    4.6028956598
     C     0.6350090441   -0.7896611376   -4.8072572503
     C    -0.3713153419   -1.4494953326   -4.1068303489
     C    -0.5244013963   -1.1966822312   -2.7486767812
     N     0.2704856552   -0.3432495834   -2.0756649998
     C     1.2467072254    0.2879936027   -2.7552983368
     C     1.4559676288    0.0971277182   -4.1158866477
     H     0.7766991470   -0.9633653009   -5.8704432029
     H    -1.0413698757   -2.1480634533   -4.5964816345
     H    -1.3143716052   -1.6696382479   -2.1787862559
     H     1.8846553770    0.9468360667   -2.1797309065
     H     2.2578623817    0.6342776097   -4.6110268931
