7
-2.1858405676837428e+03 frame 250   xyz file generated by TeraChem
    Co     0.0023716059   -0.0054380035   -0.0117219035
    Cl   -23.5448927153   84.0264146997  -26.4588540674
    Cl    83.2897038238   30.1628635757   21.6795324281
    Cl    23.5445833137  -84.0055006009   26.4260638543
    Cl   -83.2963018488  -30.1676255034  -21.6921172905
     F    -0.2726099082    0.2696421056    1.6961334694
     F     0.2773483757   -0.2805204208   -1.7195781471
