14
-7.8673060063704315e+02 frame 39   xyz file generated by TeraChem
    Co    -0.0043174773    0.0026966879   -0.3112727149
     C     0.3734257862    2.2111915486   -0.0307007800
     O     0.5761039918    3.3080138151    0.0865072512
     C     2.2130646203   -0.3330549174   -0.0257220251
     O     3.3159626660   -0.4920469678    0.1008645010
     C    -0.3839067838   -2.2064951533   -0.0382377766
     O    -0.5873209161   -3.3034835603    0.0761390762
     C    -2.2231236911    0.3389619227   -0.0385456426
     O    -3.3266661597    0.4984475389    0.0817026289
     C    -0.0116264296   -0.0003357457    2.0074840796
     O    -0.0146356904   -0.0015150788    3.1293423725
     O     0.0017734075    0.0038057509   -2.2682874668
     H     0.5226527945   -0.6016641860   -2.8650012980
     H    -0.5154709776    0.6099200032   -2.8675117251
