55
-1.2410529516129754e+03 frame 47   xyz file generated by TeraChem
    Cr    -0.0544166264   -0.0499031641   -0.0798343779
     O    -0.0163783105    2.1014566271   -0.0346568358
     C    -1.0610070988    2.9426148630    0.3770905235
     C    -0.6307438262    4.2210926887    0.3892186101
     C     0.7492840641    4.2141802000   -0.0299595478
     C     1.0917912213    2.9324524164   -0.2741106105
     H    -1.9856594760    2.4395467663    0.6002214289
     H    -1.2192132428    5.0866875093    0.6613713963
     H     1.9845355085    2.4268455634   -0.6017121970
     H     1.3971492933    5.0739043198   -0.1333291591
     O     2.1111041556   -0.0276812929   -0.0413626473
     C     2.9500258794    0.0910135106    1.0806996612
     C     4.2364970118   -0.0118820784    0.6864465951
     C     4.2391580761   -0.2027542581   -0.7428481203
     C     2.9532898482   -0.2081598213   -1.1508046215
     H     2.4464802296    0.2537650899    2.0192090358
     H     5.1027611352    0.0443500320    1.3314455337
     H     2.4405210479   -0.3064540169   -2.0918427842
     H     5.1072769761   -0.3182992102   -1.3774187236
     O    -0.0406257686   -2.1746805603   -0.0207029093
     C    -1.1899803049   -3.0157893942   -0.3170914393
     C     1.1222999172   -2.9925664206    0.2994698565
     H     1.9257160049   -2.3242348932    0.5956343338
     H     1.4102441076   -3.5699709456   -0.5833584997
     H     0.8701816146   -3.6679052609    1.1217545834
     H    -2.0088613878   -2.3543180280   -0.5846192689
     H    -1.4465965254   -3.6021457170    0.5697799095
     H    -0.9477167737   -3.6838572397   -1.1483663086
     O    -2.2162441249   -0.0297327608   -0.0588526943
     C    -3.0552400202   -0.2461855987    1.1133310838
     C    -3.0374239398    0.2496553723   -1.2284569836
     H    -2.3665222612    0.2852825155   -2.0811911052
     H    -3.5543414649    1.2044789980   -1.0957936436
     H    -3.7687659624   -0.5542189716   -1.3525129972
     H    -2.3986683622   -0.4309320278    1.9585424535
     H    -3.7058693301   -1.1066148539    0.9340003721
     H    -3.6626133408    0.6455460513    1.2953914285
     O    -0.0550045138    0.0166849663    2.4053772272
     C     0.1859919225    1.1358075786    3.2030203897
     C     0.2718311495    0.7674641553    4.5016506957
     C     0.0738125467   -0.6573995331    4.5488614014
     C    -0.1182102921   -1.0697312967    3.2753407398
     H     0.2502664322    2.0737647735    2.6752417780
     H     0.4495940627    1.4251967702    5.3413224742
     H    -0.3033624481   -2.0258548125    2.8129228816
     H     0.0745211825   -1.2832341613    5.4306368501
     O    -0.0586393478    0.0110586601   -2.4772364817
     C    -0.0616897500    1.2115535724   -3.2847756021
     C     0.0761166468   -1.1687176038   -3.2983200116
     H     0.1092608037   -2.0272632042   -2.6265994893
     H     1.0003595214   -1.1201852705   -3.8850738093
     H    -0.7774992327   -1.2573281095   -3.9792085166
     H    -0.1831525810    2.0518024061   -2.6019609405
     H    -0.8897249361    1.1853882165   -4.0012720491
     H     0.8856155055    1.3048234298   -3.8269826656
