25
-5.7572971150182184e+02 frame 147   xyz file generated by TeraChem
    Cr    -0.2632050820   -0.0493561885   -0.2653215750
     N    -0.0407155046    1.8875577220   -0.6233956967
     H     0.9080061768    2.2665219860   -0.6453003313
     H    -0.5956630478    2.5450770977   -0.0709624257
     N     1.5162375387   -0.5524456144   -0.8710705023
     H     2.2690296352   -0.0521510833   -0.3910395221
     H     1.7075406207   -1.5456461102   -0.7219682619
     N    -1.4349360369   -1.5718576392   -0.7701974832
     H    -1.4852206619   -2.3801060212   -0.1458408174
     H    -1.3214033197   -1.9567673456   -1.7109163011
     C    -4.8757104882   -1.3559705104    1.7163901243
     N    -5.6500793043   -2.0433070606    2.2467845616
     C    -3.9061472702   -0.4948017099    1.0513257645
     H    -3.0871628048   -0.2044404211    1.7237540654
     H    -4.4009499290    0.4111260596    0.6821844120
     H    -3.4054750042   -0.9979339680    0.2052687913
     N    -0.6285767005   -0.2145764545    1.6352415342
     H     0.0643035431    0.2508663265    2.2258312074
     H    -0.6512309058   -1.1890609642    1.9472792959
     C     1.2685640634    0.9639371144   -4.9243814684
     N     1.1238671836    0.6725103592   -6.0409922154
     C     1.4649411489    1.3349678260   -3.5285869478
     H     2.3136003257    2.0251487525   -3.4487397926
     H     1.6507331740    0.4587245450   -2.8816050546
     H     0.5775862554    1.8193740710   -3.1010208179
