19
-2.8671012798071711e+03 frame 98   xyz file generated by TeraChem
    Mn    -0.0405537643    0.0037151757   -0.0271133739
     S     0.2453400132    2.2141220356   -1.2095604301
     C    -0.8317788805    2.2438373248   -2.5106502498
     N    -1.5572554322    2.3341622200   -3.4287063044
     S     2.1592071051    0.2932112375    1.1983206821
     C     2.0064846052   -0.5720659221    2.6371058064
     N     1.9610993751   -1.1575017496    3.6534804751
     S    -0.3267387494   -2.2061228630   -1.2136021495
     C     0.7237407856   -2.2191551047   -2.5362186898
     N     1.4308796712   -2.2972414474   -3.4697036968
     S    -2.2376438004   -0.2899447621    1.2012518578
     C    -2.0766243674    0.5545598445    2.6514999542
     N    -2.0258473213    1.1254439654    3.6758586741
     S    -0.0290266533   -0.0370722301    6.3484987536
     H    -0.8651129314    0.4930722532    5.4170978608
     H     0.8044212117   -0.5520174344    5.4062644612
     S    -0.0407831487    0.0136704158   -5.3775095395
     H     0.5456957166   -0.8042056223   -6.2808638864
     H    -0.5551032984    0.8099856133   -6.3434030052
