34
-1.0725349364881697e+03 frame 170   xyz file generated by TeraChem
    Mn     1.7630441274    0.6509500936    0.2067037152
     C     1.0487760776    1.4353358194   -1.4822923865
     N     0.5808075245    1.8568891627   -2.4662481175
     C     3.4275953778    1.5711929016   -0.1196516902
     N     4.4415889826    2.1126261598   -0.3271096450
     O     1.8295687346   -1.5058364606   -0.5345518903
     C     1.3653324145   -1.9731824017   -1.7583279155
     C     1.7149994067   -3.2713852469   -1.9035005710
     C     2.4387444314   -3.6509765895   -0.7176624653
     C     2.4881806197   -2.5627231979    0.0830250563
     H     0.8220768516   -1.2588760179   -2.3562672181
     H     1.4896862704   -3.8948395497   -2.7572517440
     H     2.9047004429   -2.3425802514    1.0527719321
     H     2.8677608664   -4.6182999047   -0.4974836606
     O    -0.2631731099    0.3345761269    0.9333087607
     C    -0.6433642690    0.2503826801    2.2755601222
     C    -1.9798405657    0.0778120836    2.3489589975
     C    -2.4821218864    0.0460540497    0.9992484212
     C    -1.4271391427    0.2032100140    0.1718178787
     H     0.1638559769    0.3181782585    2.9854452240
     H    -2.5531392962   -0.0179930970    3.2601573610
     H    -1.2932740157    0.2515231926   -0.8962522767
     H    -3.5102761354   -0.0772608271    0.6896121367
     C     2.5127304600    0.1584095638    1.9876920167
     N     2.8901154139   -0.1776677084    3.0416158678
     O    -1.5554980279   -0.7364820030   -3.1529019945
     C    -1.6560790354    0.1373642134   -4.2061295935
     C    -2.5225851698   -0.3495109702   -5.1328871131
     C    -2.9950430175   -1.6093435783   -4.6283411902
     C    -2.3796790809   -1.7947110350   -3.4311404818
     H    -1.0494943462    1.0259400798   -4.1194738297
     H    -2.7956490494    0.1247892531   -6.0650933030
     H    -2.4073969876   -2.5750824783   -2.6859733667
     H    -3.6980198817   -2.2820369272   -5.0999264053
