13
-5.7569779965667749e+02 frame 318   xyz file generated by TeraChem
    Mn   -30.6910636235  -28.6010769495   -2.6780636243
     O   -29.7363218689  -25.6466986945   -2.9840158720
     H   -29.8887735187  -25.9643724712   -3.8912394314
     O   -28.7881334573  -28.3249958390   -2.9751676197
     H   -28.7843224324  -27.3318204738   -2.9436868297
     O   -31.0145312686  -30.5579603995   -2.3742684266
     H   -30.1078783434  -30.9094719665   -2.3452152077
     O   -32.0534374906  -27.2399604059   -2.6814014352
     H   -31.4363164915  -26.4557985073   -2.7065024734
     O    13.3232898130   11.2578718323   82.2771620841
     H    12.7058652745   10.7878002457   81.6662433964
     C    19.4251990602   19.5894257845  -79.5013114379
     N    19.1031684568   18.4630168714  -79.6742498304
