13
-1.1897136020958826e+03 frame 113   xyz file generated by TeraChem
    Mn    -0.7085304443   -0.5649757676    0.9602797366
     F    -0.5808652521    1.3343713524    1.6301178715
     F     0.8794110429   -0.6583642124   -0.2458944604
     F    -1.1651168756   -1.8684958743    2.2899662976
     F    -2.2536306832   -0.5911288318   -0.3235387063
     P     1.9366202893    2.0185462053    1.6461483192
     H     1.7795472098    1.2565188393    2.8314740399
     H     1.7792497193    0.9352265567    0.7384817888
     H     3.3965769528    1.9026643845    1.7175691943
     P    -1.3319393540   -0.9832651070   -2.7568650841
     H    -0.5552751931   -0.7855725985   -3.9844746094
     H    -1.7367739056    0.3753317778   -2.7448354003
     H    -0.2190026929   -0.8279178729   -1.8822750442
