22
-6.5652125440988902e+02 frame 175   xyz file generated by TeraChem
    Co     0.7655658111   -0.1529825764   -0.7479649843
     C    -0.1663875069    3.5352477078    1.9545862764
     O    -0.9689451683    4.3622884210    2.3407714685
     H     0.8953809016    3.5673630417    2.2997956170
     H    -0.4123902138    2.7087327526    1.2508435589
     C     3.9174713254   -0.0657005695    0.0481935329
     O     5.0074875898    0.5757343220   -0.0755937557
     H     3.4216353989   -0.1254814597    1.0651785839
     H     3.8224123676   -1.0882391791   -0.4195289514
     C    -2.3168466016   -3.4125030512   -0.9882917767
     O    -2.8490462601   -4.3737285669   -1.5075793002
     H    -2.8585863616   -2.8107536420   -0.2169526571
     H    -1.2896217119   -3.0542477102   -1.2241807837
     N    -0.6618188704    0.9887566172   -0.1552448676
     H    -1.1352566731    1.5419703463   -0.8720050139
     H    -1.4069097742    0.5398829745    0.3798578481
     N     2.6422561397    0.6839633232   -0.7731473236
     H     3.0338198875    0.8027776866   -1.7117375786
     H     2.6588197756    1.6285473460   -0.3811410883
     N     0.6096111939   -1.9298217068   -1.4551637941
     H     0.6210888293   -2.0049566482   -2.4738997857
     H     1.3073831034   -2.5960586940   -1.1182127770
