21
-1.7020443966416233e+03 frame 68   xyz file generated by TeraChem
    Mn     0.1032690826    0.0005604696    0.0792280562
     P    -0.2536522145    2.5717002913    0.5305811450
     H    -1.5803631453    2.8808862973    0.8887319249
     H     0.5381730514    3.1204657979    1.5569343445
     H     0.0113170200    3.3698560159   -0.5992324237
     P     2.7601189611    0.4677645385   -0.3138150692
     H     3.0787911279    1.7059060801   -0.9063671320
     H     3.5349712487    0.4631221879    0.8634753010
     H     3.4306270585   -0.4518790994   -1.1447106529
     P     0.5535098761   -2.5709726596   -0.2761184727
     H     1.5792352021   -3.1204802187    0.5160059268
     H    -0.5771064086   -3.3679296839   -0.0109837705
     H     0.9113720263   -2.8810047441   -1.6027131318
     C    -2.3020502378   -0.3675630487   -0.1980583651
     O    -3.4087550927   -0.5487756087   -0.2892777044
     P    -0.2934229649   -0.4670775097    2.7359345950
     H     0.8829766903   -0.4646064846    3.5121664418
     H    -1.1237616570    0.4533985692    3.4060154871
     H    -0.8882135807   -1.7045132148    3.0532344885
     C    -0.1693706584    0.3692572445   -2.3271635338
     O    -0.2589606587    0.5504197674   -3.4340133533
