9
-2.7998250201733908e+03 frame 43   xyz file generated by TeraChem
    Cr    -0.6899489116    0.1238251199    0.2628010652
    Cl    -1.0649333684    2.4443398344   -0.1953581080
    Cl     2.1319396783    0.3059000375   -1.1429439164
    Cl    -0.3376935087   -2.2302431520    0.5468075949
     C    -2.7160347434   -0.2384178676   -0.1553456071
     S    -3.6910283427   -0.5667474905   -1.3584494897
    Cl    -0.3191924969    0.5404424432    2.6751739725
     C     0.2887497570   -0.0431818877   -1.5664002989
     S    -0.0444066499   -0.3603172442   -3.1218535672
