11
-1.3218270493426085e+03 frame 82   xyz file generated by TeraChem
    Fe    -0.7905825388    0.0386860962   -0.7801657199
     F    -1.6370913502    1.6166496975   -0.9641374131
     F     0.9648456044    0.3233155998   -1.0436962971
     F    -1.3179195582   -1.1669913799   -2.0156384456
     S    -3.1150591909    1.6258519142    1.9918472908
     H    -2.3707876801    0.4957321281    1.9245597171
     H    -2.7075301642    1.9782720235    0.7481915042
     F    -1.0641536738   -0.6772911638    0.8473057555
     S     1.5356218130   -1.6848415731   -3.5782081465
     H     0.2238688678   -1.7854831537   -3.2566653850
     H     1.7118046834   -0.7844682682   -2.5803535300
