49
-1.9691972540522702e+03 frame 55   xyz file generated by TeraChem
    Mn     0.0323439759   -0.0072309939   -0.0072637472
     C     0.5508917154    5.0090193324   -0.7883609040
     C     1.4350974702    4.3255654220    0.0475229940
     C     1.2593510690    2.9584927056    0.2339442074
     N     0.2660003709    2.2569207901   -0.3518868169
     C    -0.5856451354    2.9290711637   -1.1550980595
     C    -0.4785962880    4.2937817360   -1.4016945734
     H     0.6612698852    6.0758177338   -0.9575731563
     H     2.2498454267    4.8390933153    0.5470936845
     H     1.9368994793    2.3958568306    0.8689073149
     H    -1.3842111494    2.3464698525   -1.6040879191
     H    -1.1906676512    4.7819987000   -2.0587127416
     C     5.0113031457   -0.7161311923   -0.7784554623
     C     4.3447484124   -1.3981913481    0.2403851992
     C     2.9827118637   -1.1772438494    0.4144873182
     N     2.2705747139   -0.3274793726   -0.3557335866
     C     2.9257221213    0.3280753091   -1.3375597641
     C     4.2846625813    0.1630497153   -1.5827821829
     H     6.0740400065   -0.8665486188   -0.9422789088
     H     4.8677476794   -2.0915036557    0.8906160571
     H     2.4304561054   -1.6986839776    1.1899946539
     H     2.3327839961    1.0106179903   -1.9388079268
     H     4.7598994865    0.7140771943   -2.3874961165
     C    -0.6697920425   -4.9886353176    0.8485454026
     C    -1.2442364577   -4.0335886079    1.6884627453
     C    -1.0240158301   -2.6865058372    1.4210200501
     N    -0.2731040441   -2.2539471357    0.3859967160
     C     0.2791171206   -3.1872625849   -0.4185088107
     C     0.1060958001   -4.5538737863   -0.2268290378
     H    -0.8233366221   -6.0483718606    1.0280986498
     H    -1.8550175013   -4.3234066866    2.5369874228
     H    -1.4661707315   -1.9189254859    2.0486220534
     H     0.8859517042   -2.8171877851   -1.2391872673
     H     0.5724623163   -5.2587009705   -0.9071229925
     C    -4.9651084598    0.7191204450    0.7389036612
     C    -4.5128414553   -0.3140512204   -0.0830182564
     C    -3.1427859866   -0.4809934628   -0.2558408836
     N    -2.2237237940    0.3143296693    0.3311866930
     C    -2.6735864908    1.3127038402    1.1205690387
     C    -4.0246584022    1.5472610835    1.3531316723
     H    -6.0277978323    0.8758494693    0.8969096578
     H    -5.2065513524   -0.9822634880   -0.5823697898
     H    -2.7587859900   -1.2814797826   -0.8809059156
     H    -1.9163394518    1.9457616665    1.5729893274
     H    -4.3286902619    2.3632631206    2.0002776320
     C     0.4412632637    0.3343003231    2.3909435437
     S     0.7107801201    0.5238236436    3.8776418493
     C    -0.3614028419   -0.3594507795   -2.3992859196
     S    -0.5803006318   -0.5736320340   -3.8907745105
