25
-1.8548005099649788e+03 frame 64   xyz file generated by TeraChem
    Mn     0.0082836187   -0.0065284877   -0.0223336907
     P    -0.3771612156    2.8451522866   -0.4511357078
     H    -1.6507334709    3.4155352846   -0.2015362135
     H     0.3511844905    3.7826477612    0.3229465160
     H    -0.1699851397    3.4763325494   -1.7022990816
     P     2.7324100832    0.4604381796    0.6057228112
     H     3.0746411640    1.6625986418    1.2606216470
     H     3.3783615663   -0.4234032272    1.4958011826
     H     3.7838585814    0.5030359523   -0.3647031678
     P     0.3545258109   -2.8402892777    0.5462074499
     H     1.5003730111   -3.2780096222    1.2560394462
     H    -0.5864735516   -3.5008647004    1.3746700573
     H     0.4043889902   -3.8359404685   -0.4606417209
     P    -2.7151971052   -0.4721571476   -0.6555921554
     H    -3.0543033864   -1.6736935300   -1.3132296016
     H    -3.7724884257   -0.5154011278    0.3094965504
     H    -3.3561460358    0.4127884115   -1.5481350729
     C     0.6083257847    0.4457757420    2.6817202372
     O    -0.4267136357    0.2874502199    1.9321607582
     O     0.2612807674    0.6350508109    3.9662423860
     H    -0.7277497948    0.6037238726    4.0152863586
     C    -0.5932792805   -0.4544995944   -2.7214055058
     O     0.4422573689   -0.2994393418   -1.9727261684
     O    -0.2483181527   -0.6320578244   -4.0083938444
     H     0.7404983928   -0.5978815456   -4.0586612334
