47
-1.3378645535294841e+03 frame 71   xyz file generated by TeraChem
    Co     0.0008998032    0.0016944281   -0.0040601541
     C     0.5327644702    4.9260934828   -0.0044610150
     C     0.4568540081    4.2219490995    1.1977074743
     C     0.3105005844    2.8391103195    1.1561033746
     N     0.2424889514    2.1648121413   -0.0042677661
     C     0.3100875126    2.8389858907   -1.1647293249
     C     0.4564152305    4.2218217455   -1.2065266484
     H     0.6472136350    6.0060046966   -0.0045408896
     H     0.5074749328    4.7304383988    2.1547516701
     H     0.2373766554    2.2291370978    2.0489275231
     H     0.2366527546    2.2289296568   -2.0574717588
     H     0.5066615247    4.7302208488   -2.1636387056
     C     4.9252083872   -0.5310086949   -0.0038728430
     C     4.2209512405   -0.4550046390    1.1982248931
     C     2.8381466466   -0.3083628146    1.1564875480
     N     2.1639840276   -0.2401747725   -0.0039469903
     C     2.8382704206   -0.3078383416   -1.1643424664
     C     4.2210813726   -0.4544495196   -1.2060097347
     H     6.0050947230   -0.6456902038   -0.0038389936
     H     4.7293350250   -0.5057572944    2.1553175943
     H     2.2281215081   -0.2351386522    2.0492680000
     H     2.2283158603   -0.2342565796   -2.0571427541
     H     4.7295622711   -0.5047647908   -2.1630744268
     C    -0.5327654981   -4.9225536305   -0.0043144581
     C    -0.4563098382   -4.2184355152    1.1978273701
     C    -0.3093452955   -2.8356586018    1.1561653020
     N    -0.2412696384   -2.1614040833   -0.0042201508
     C    -0.3093418553   -2.8355678943   -1.1646658078
     C    -0.4563017457   -4.2183326921   -1.2064113334
     H    -0.6477227065   -6.0024106693   -0.0043673475
     H    -0.5069599235   -4.7268845355    2.1548910031
     H    -0.2357808773   -2.2256976568    2.0489638112
     H    -0.2357940191   -2.2255343859   -2.0574160792
     H    -0.5069578116   -4.7267320201   -2.1635010945
     C    -4.9234870431    0.5341376994   -0.0039350498
     C    -4.2193043508    0.4579775417   -1.2060651897
     C    -2.8364801388    0.3115136752   -1.1643849082
     N    -2.1622312619    0.2436563059   -0.0039802821
     C    -2.8364476940    0.3114494226    1.1564476049
     C    -4.2192705687    0.4579072834    1.1981732239
     H    -6.0033881806    0.6486834077   -0.0039144547
     H    -4.7277614147    0.5084555873   -2.1631345738
     H    -2.2264819252    0.2381789749   -2.0571750190
     H    -2.2264224899    0.2380764326    2.0492160664
     H    -4.7277048563    0.5083500125    2.1552561655
     F     0.0008534835    0.0016883853    1.8145824184
     F     0.0008606244    0.0016018326   -1.8227167739
