43
-1.5047864978674361e+03 frame 95   xyz file generated by TeraChem
    Cr    -0.0010144837   -0.0029162840    0.0232936698
     O    -0.0153046077    2.0935744943    0.0227674799
     C     0.8180286534    2.9136530645   -0.8374580593
     C    -0.8664011240    2.8985186214    0.8801803504
     H    -1.4668198085    2.2137127413    1.4761558136
     H    -1.5117592395    3.5314942245    0.2642774919
     H    -0.2440647416    3.5223827934    1.5284495638
     H     1.4230628123    2.2396163258   -1.4410018475
     H     1.4584104865    3.5536407234   -0.2237288226
     H     0.1821633199    3.5304499774   -1.4793747460
     O     2.0951702054    0.0019358275    0.0542610938
     C     2.9237468574   -0.8200028987   -0.8077866669
     C     2.8951717297    0.8025538732    0.9636997340
     H     2.2118127656    1.4234037064    1.5405949547
     H     3.5779698267    1.4331700070    0.3873402587
     H     3.4594520377    0.1444958457    1.6301061948
     H     2.2564236377   -1.4299349002   -1.4136593508
     H     3.5664706461   -1.4588506607   -0.1954131328
     H     3.5345526523   -0.1767136121   -1.4474501145
     O     0.0136082394   -2.1018341587    0.0158964616
     C    -0.7610761765   -2.9205928962   -0.9015671235
     C     0.8218181167   -2.9133426321    0.9101770148
     H     1.4093425730   -2.2370371171    1.5287301674
     H     1.4817999062   -3.5569454120    0.3216546389
     H     0.1665426719   -3.5255861482    1.5364075603
     H    -1.3660106746   -2.2507906904   -1.5103770111
     H    -1.4030360094   -3.5973894107   -0.3309007218
     H    -0.0812952288   -3.4971315278   -1.5354305497
     O    -2.0967802518   -0.0201407964   -0.0207278832
     C    -2.8911149237    0.7409213454   -0.9698378649
     C    -2.9225332949   -0.8981609100    0.7878148802
     H    -2.2540125873   -1.4936709122    1.4065260778
     H    -3.5128511621   -1.5483609433    0.1359283706
     H    -3.5844954402   -0.2954566587    1.4157868101
     H    -2.2316158558    1.4731729595   -1.4327853553
     H    -3.6967391180    1.2520416833   -0.4357551664
     H    -3.3033666514    0.0669076784   -1.7254097538
     S     0.1299348839   -0.0957822423    3.2195392569
     H    -0.9120394287   -0.6770364833    3.8475079760
     H    -0.0133298169    1.0792543079    3.8653302688
     S    -0.1431695473   -0.0745913599   -3.1923913442
     H     0.9024442562   -0.6113515595   -3.8530613717
     H    -0.0605309353    1.1103869249   -3.8303853687
