11
-2.7515472033147475e+03 frame 48   xyz file generated by TeraChem
    Cr    -0.0000234631   -0.0000618783    0.0439445033
     C     0.2927605702    2.0171351397   -0.2943592213
     S     0.5066897302    3.5004571537   -0.5365042471
     C     2.0175791394   -0.3358779456   -0.2498812846
     S     3.4995886391   -0.5813666669   -0.4690205138
     C    -0.2928989643   -2.0169892709    0.3824962330
     S    -0.5065760132   -3.5002967109    0.6249656656
     C    -2.0172888476    0.3357143972    0.3372910064
     S    -3.4994075533    0.5812123159    0.5557424994
    Cl     0.3609222965    0.3425280990    2.2630932176
    Cl    -0.3613457673   -0.3424609876   -2.1749946658
