55
-1.4685702491651155e+03 frame 54   xyz file generated by TeraChem
    Mn     0.2516461990   -0.1032467874    0.3205107560
     C     0.2753651436    4.2725237167   -0.3619722371
     C     0.8384768768    3.0338453641   -0.2279501817
     N    -0.1546402968    2.0892124069    0.0018841894
     C    -1.3033179262    2.7640757714    0.0090814549
     N    -1.0812506445    4.0779676655   -0.2066802061
     H    -1.7943919440    4.7956452300   -0.2539503944
     H     0.7026342270    5.2455577109   -0.5500378254
     H     1.8805507696    2.7625541909   -0.2921656510
     H    -2.2879161183    2.3480140479    0.1566051316
     C     4.5554242137    0.4145931719   -0.4087221645
     C     3.2569917064    0.2647774389   -0.8103328322
     N     2.4384790439    0.1514851215    0.3061724878
     C     3.2414611118    0.2310455290    1.3641959611
     N     4.5222236865    0.3905160258    0.9703859704
     H     5.3233452384    0.4737470540    1.5845704531
     H     5.4746599752    0.5309896316   -0.9620668556
     H     2.8560097736    0.2248743976   -1.8112581033
     H     2.9345083107    0.1738699181    2.3977923298
     C     0.7544011408   -4.4014107051   -0.2639690732
     C     1.2032138660   -3.1268598565   -0.0566029550
     N     0.1212831542   -2.2581209293    0.0001461151
     C    -0.9658611496   -3.0074148149   -0.1691334727
     N    -0.6203777813   -4.3014206710   -0.3312641755
     H    -1.2644685943   -5.0691235508   -0.4797511414
     H     1.2713354183   -5.3433179161   -0.3654488105
     H     2.2149050489   -2.7674748027    0.0524176440
     H    -1.9847171256   -2.6525554406   -0.1873997489
     O    -2.2914582172   -0.1372959858   -0.0626503657
     C    -3.2513314601   -0.0805053007    0.9354277855
     C    -4.4762159249    0.1066304262    0.3852895173
     C    -4.2868328226    0.1706619950   -1.0400500058
     C    -2.9597126089    0.0175902356   -1.2671310247
     H    -2.8885919074   -0.2098283754    1.9422682341
     H    -5.4129235828    0.1824685259    0.9201048890
     H    -2.3426100293   -0.0025906236   -2.1506963707
     H    -5.0521388321    0.3073989786   -1.7914390803
     C    -0.4329440246   -0.7701457004    4.6156895845
     C    -0.2216064061   -1.1862973612    3.3305171545
     N    -0.1113450217   -0.0814417074    2.4977219814
     C    -0.2547131786    0.9869827183    3.2783328404
     N    -0.4501799387    0.6086127571    4.5592098756
     H    -0.5858600186    1.2321565573    5.3459275822
     H    -0.5682794192   -1.3118431019    5.5392683995
     H    -0.1352987243   -2.1909058010    2.9461760194
     H    -0.2241426033    2.0161233829    2.9533978186
     O     0.2733604831   -0.0717954071   -2.3040047621
     C     0.4947196910   -1.1723639398   -3.1217458353
     C     0.4439199041   -0.8057046397   -4.4239899328
     C     0.1765961080    0.6067467096   -4.4470761475
     C     0.0836995777    1.0078013710   -3.1572186931
     H     0.6714334955   -2.1064117157   -2.6153342611
     H     0.5810468840   -1.4560693994   -5.2767084409
     H    -0.0846389658    1.9573798810   -2.6784521011
     H     0.0725482120    1.2351752317   -5.3206845673
