22
-4.6102992049524880e+02 frame 151   xyz file generated by TeraChem
    Fe    -0.3865917502    0.2509498871   -0.4103628619
     N    -1.2473951251    3.5265055683    0.7744732078
     H    -1.7872395085    2.6416708553    0.6732754525
     H    -1.0160650778    3.7768403562   -0.1910586606
     H    -0.3597741687    3.1810293851    1.1488556839
     N     2.9728225629   -1.6518178934    0.2742825763
     H     3.4995341684   -1.3257948885   -0.5387203686
     H     2.3927197853   -0.8209202154    0.5678500697
     H     3.6701186602   -1.7926849139    1.0083949454
     N     0.1169357696   -1.9550954451   -0.8068077066
     H     1.0368730915   -2.1843758861   -0.4108384414
     H    -0.5116646544   -2.7510923532   -0.7224672567
     H     0.2377295173   -1.7102525514   -1.7952935087
     N    -2.2720612875    0.7530513924    0.1427925036
     H    -2.7776542026    0.0697358808    0.7135697682
     H    -2.8770453283    0.9173138453   -0.6680321361
     N     1.0988583220    0.4779117234    0.9880434437
     H     1.3543168841    1.4483997124    1.1929045473
     H     0.7883872473    0.1101716440    1.8947661405
     N     0.0507051285    0.4344545372   -2.3825680546
     H    -0.7587541581    0.7279937707   -2.9369822649
     H     0.7829435655    1.1125426379   -2.6073588007
