55
-1.2473808000794847e+03 frame 60   xyz file generated by TeraChem
    Mn     0.0975132418    0.0527691180   -0.0011014402
     C     0.7160754707    4.3195910931    0.6448210734
     C     1.1357616908    3.0379481192    0.4200651205
     N     0.0327872147    2.2005195428    0.3245431987
     C    -1.0362795225    2.9741438753    0.4918476827
     N    -0.6616041060    4.2553073242    0.6871448457
     H    -1.2866676186    5.0386149789    0.8367383968
     H     1.2550909182    5.2458283363    0.7728388840
     H     2.1386467844    2.6558648695    0.3101886600
     H    -2.0619647971    2.6416824435    0.4762204098
     C     4.4525413991   -0.2558383210   -0.5605884304
     C     3.1697466853   -0.0853766250   -1.0026254261
     N     2.2957678316   -0.1580399675    0.0719808425
     C     3.0472535145   -0.3670055321    1.1488156007
     N     4.3511031538   -0.4328849086    0.8043223284
     H     5.1244182935   -0.5850703842    1.4407860401
     H     5.4010243896   -0.2665189532   -1.0755065351
     H     2.8057660392    0.0848206581   -2.0037514527
     H     2.6820238048   -0.4719737474    2.1586177527
     C     0.3078926986   -4.3148229225   -0.6499146463
     C     0.8495156749   -3.0738079199   -0.4616831995
     N    -0.1658796841   -2.1363685885   -0.3193375727
     C    -1.3047062700   -2.8167088154   -0.4229123719
     N    -1.0580049258   -4.1284577463   -0.6209824728
     H    -1.7582713933   -4.8522193255   -0.7309153299
     H     0.7561665327   -5.2851526312   -0.7991686813
     H     1.8891380102   -2.7903933632   -0.4278935736
     H    -2.2968884482   -2.4014183645   -0.3607336717
     O    -2.2914808201    0.0803448026    0.0110627673
     C    -3.0831663616    0.3263376058   -1.1672862109
     C    -3.1050692498   -0.1051087529    1.1839727941
     H    -2.4202921185   -0.2414258293    2.0204917872
     H    -3.7460430757   -0.9872652939    1.0709154084
     H    -3.7369534672    0.7744352186    1.3561357532
     H    -2.3856105178    0.4179700568   -1.9995510125
     H    -3.6632141264    1.2494635444   -1.0530942502
     H    -3.7716129457   -0.5082762723   -1.3444889370
     O     0.0833008248   -0.3051577854    2.4728174871
     C    -0.0631070966   -1.5901938323    3.1040443667
     C     0.0895796732    0.7522749075    3.4485091480
     H     0.3144069675    1.6813248988    2.9274655817
     H     0.8593390867    0.5606870442    4.2051938257
     H    -0.8862940846    0.8246865200    3.9435060992
     H    -0.0165223620   -2.3438857572    2.3204963961
     H    -1.0237767122   -1.6543035386    3.6292605212
     H     0.7480154773   -1.7509854570    3.8238453894
     O     0.0973651150    0.3707618346   -2.4203431031
     C     0.1718135104    1.6613099725   -3.0558435225
     C     0.1208520345   -0.6811787703   -3.4045688245
     H     0.0990444403   -1.6354101415   -2.8815575227
     H     1.0344381899   -0.6113069271   -4.0062792270
     H    -0.7503199782   -0.5967785894   -4.0644471133
     H     0.1308874981    2.4147204111   -2.2724234989
     H    -0.6710352696    1.7917028989   -3.7445427338
     H     1.1105570118    1.7559556902   -3.6141489778
