21
-1.7524759088538897e+03 frame 65   xyz file generated by TeraChem
    Fe     0.1322465803    0.1467663604   -0.0114109328
     C    -0.0222807581    3.3919082961    0.3080649966
     O     0.6894540095    2.4089944808    0.0194576181
     O    -1.2435763724    3.0634792689    0.9086780384
     H    -1.2396015317    2.0841587806    1.0738173038
     C     3.0418202606   -1.3737267619   -0.0037262081
     O     2.5344270721   -0.2439558131   -0.0066435686
     O     2.6357605138   -2.5482124977   -0.0231617888
     H     0.9456124305   -2.5773709576   -0.0277698983
     C    -0.8886080000   -3.2077634024    0.3507916616
     O    -0.0093215394   -2.2696966532   -0.0486519188
     O    -2.0805578154   -2.6652098516    0.3861706207
     H    -2.0908144651   -1.6689117088    0.1536825969
     C    -3.0058764657    0.2756131256   -0.9587578022
     O    -2.1046036142    0.0002847905   -0.0878837311
     O    -3.0926935017    1.6141214134   -1.2173678083
     H    -2.4442144307    2.1127851299   -0.6568401355
     C     0.1960715808    0.1608929984    1.8915014801
     S     0.5067591516    0.2878843413    3.4358127366
     C     0.3593604169    0.3294528926   -1.9072640114
     S     0.8203273631    0.6710668237   -3.3720743168
