22
-2.5890566639609251e+03 frame 56   xyz file generated by TeraChem
    Cr    -0.2385923383   -0.5636982842   -0.9355453573
     P    -0.5488294312    2.7461760929   -0.2822935310
     H    -1.7150175668    3.1411531159    0.4320355936
     H     0.1145657815    3.9965657341   -0.1059175792
     H    -1.0722862543    3.0672021876   -1.5564526432
     P     2.3513364386   -0.3348990336   -0.5236742597
     H     3.0357360353    0.8312419984   -0.0995543316
     H     2.9167668769   -1.2468097720    0.3962423994
     H     3.1528243702   -0.6342495879   -1.6431874604
     S     0.4007764422   -3.2017233808   -1.1766574507
     C     0.9707442004   -3.4438915307    0.3854017049
     N     1.3762801480   -3.5658912591    1.4838517913
     S    -2.6492399193   -0.1511739567   -1.3620449993
     C    -3.4404703783   -0.6184957334    0.0574457257
     N    -4.0004737615   -0.9174286588    1.0442715350
     P    -0.6379485109   -0.8654640138    1.6327776395
     H     0.4582306883   -0.8454150339    2.5231638979
     H    -1.4506678616    0.0910498409    2.2774494953
     H    -1.2687134224   -2.0380063540    2.0830661999
     S     0.1334007951    0.0050560222   -3.3286915922
     C     1.1213057304    1.3588256268   -3.1301877897
     N     1.8213458517    2.2905994978   -2.9861603648
