42
-9.9763991800064298e+02 frame 49   xyz file generated by TeraChem
    Cr    -0.0325107398    0.0452782697   -0.0835367442
     C     0.3981616226    3.1888010440   -0.4624050387
     N     0.2728503137    2.0415493254   -0.3482043071
     C     0.5569853583    4.6243176546   -0.6130590356
     H     0.4189369013    4.9051690104   -1.6638641340
     H     1.5599606345    4.9252830049   -0.2883749182
     H    -0.1884533161    5.1466220390   -0.0018447394
     C     3.0666051221   -0.4575563580    0.4987977205
     N     1.9500677561   -0.2568936144    0.2578291750
     C     4.4661394831   -0.7075793273    0.7940375108
     H     5.0175695035    0.2398305643    0.8150949957
     H     4.8982497774   -1.3584374139    0.0247521584
     H     4.5585044369   -1.1964568851    1.7710179307
     C    -0.5071721822   -3.0678530602    0.4443248561
     N    -0.3536412404   -1.9403061623    0.2205952808
     C    -0.7027067359   -4.4800606151    0.7196719655
     H     0.2373424603   -4.9249656159    1.0665768556
     H    -1.0270715546   -4.9963377651   -0.1915668299
     H    -1.4674399065   -4.6057379907    1.4951239656
     C    -3.1561062962    0.5682571212   -0.5117530067
     N    -2.0243408222    0.3528478258   -0.3792103136
     C    -4.5734007331    0.8341711329   -0.6831763900
     H    -5.1553341890    0.2155998521    0.0101084594
     H    -4.8739176824    0.6020377836   -1.7116650496
     H    -4.7803348399    1.8915808871   -0.4806142926
     C    -0.4901378990    0.5550180191    3.0889099305
     N    -0.3274180474    0.3726753069    1.9554392058
     C    -0.6943840668    0.7837528597    4.5093055959
     H    -1.7335049733    0.5602688355    4.7769460180
     H    -0.4786877523    1.8304660309    4.7527186915
     H    -0.0276635175    0.1365598162    5.0907199630
     C     0.6401327769   -0.7209472495   -4.8107670746
     C    -0.4221263761   -1.3268601458   -4.1357091156
     C    -0.5896028782   -1.0831284179   -2.7800244317
     N     0.2461438229   -0.2734174507   -2.0818203311
     C     1.2771168622    0.3149661036   -2.7399106629
     C     1.5006307914    0.1143178559   -4.0944216290
     H     0.7934221756   -0.8951691720   -5.8717153526
     H    -1.1174507639   -1.9820940582   -4.6500139655
     H    -1.4067590304   -1.5347216040   -2.2321952319
     H     1.9282278593    0.9552796698   -2.1586054661
     H     2.3388949405    0.6074206368   -4.5755758473
