43
-1.0764290653004268e+03 frame 75   xyz file generated by TeraChem
    Cr    -0.0053167137    0.0124686966    0.0007323013
     H     1.7238078281    4.8593277583   -0.4910174501
     H     0.4459797969    4.8554926778   -1.7484129476
     C     0.6780965567    4.6225760262   -0.7056121402
     N     0.4716624686    3.2163982282   -0.4919092101
     C     0.3035146905    2.0841795121   -0.3191933564
     H     0.0183592430    5.1784860330   -0.0339299829
     H     5.1384540008   -0.4242305084    0.2121301392
     H     4.7527482474   -1.8197589757   -0.8453083706
     C     4.5944591752   -0.7508791441   -0.6782958541
     N     3.1912927060   -0.5211404424   -0.4683685474
     C     2.0616005456   -0.3338515460   -0.2988515121
     H     4.9150675993   -0.1782734587   -1.5528203426
     H    -0.4556851526   -4.8232844635    1.7593823406
     H    -1.7191282403   -4.8370653903    0.4830515794
     C    -0.6778066991   -4.5957241007    0.7132119975
     N    -0.4725073435   -3.1902024760    0.4952102630
     C    -0.3079901117   -2.0577307707    0.3206494014
     H    -0.0065727049   -5.1533762943    0.0544473421
     H    -5.0021164277   -0.0050338625    1.3236703261
     H    -4.7370858707    1.7577531419    1.1221583634
     C    -4.6090511713    0.7732967212    0.6639716852
     N    -3.2054185950    0.5393855039    0.4624912025
     C    -2.0747125014    0.3530173304    0.2987567031
     H    -5.1119890237    0.7349368379   -0.3061242630
     O     0.2966316684    0.2982445218    1.9857008865
     C    -0.4291545803   -0.2980672660    3.0517782572
     C     0.1544182122    0.0292898901    4.2181377287
     C     1.2988975166    0.8606139732    3.9234942255
     C     1.3693985575    1.0078137818    2.5887240086
     H    -1.2922000203   -0.8760364260    2.7675064053
     H    -0.1830670259   -0.2741694367    5.2009660336
     H     2.0220808552    1.5350587372    1.9135486989
     H     1.9787282074    1.2966179386    4.6443842002
     O    -0.3187915762   -0.2296566924   -1.9884257778
     C    -1.1583452390    0.5620168319   -2.8182159700
     C    -1.1701238505    0.0387624791   -4.0569047562
     C    -0.3212284455   -1.1304676453   -4.0529175967
     C     0.1762278200   -1.2751325272   -2.8119649423
     H    -1.6147360759    1.4157553975   -2.3460703577
     H    -1.7177301933    0.4317768484   -4.9040449337
     H     0.8430084129   -1.9739394160   -2.3356669356
     H    -0.1145213344   -1.7768257789   -4.8963621989
