57
-1.3446954196343986e+03 frame 60   xyz file generated by TeraChem
    Cr     0.0009969910    0.0023517301    0.0449908076
     C    -0.9305731348    4.8657064899   -0.0373854843
     C    -0.1579463531    4.3109317602    0.9836839348
     C     0.0836844920    2.9418188512    0.9742400179
     N    -0.4006697511    2.1215512404    0.0174889986
     C    -1.1507012213    2.6649785512   -0.9655434045
     C    -1.4351120733    4.0241830164   -1.0295102888
     H    -1.1359593984    5.9316563116   -0.0587920315
     H     0.2544733560    4.9261789856    1.7762359193
     H     0.6771857572    2.4711877777    1.7499511466
     H    -1.5242786927    1.9763558418   -1.7152288902
     H    -2.0423677596    4.4106583721   -1.8410951448
     C     4.8643107566    0.9335432862   -0.0387951650
     C     4.3099079284    0.1601486515    0.9819197154
     C     2.9407948527   -0.0813908201    0.9728748626
     N     2.1201754098    0.4037426802    0.0167806169
     C     2.6632032732    1.1544745741   -0.9659096936
     C     4.0224125376    1.4388818009   -1.0301711989
     H     5.9302636447    1.1388858645   -0.0604702782
     H     4.9254827771   -0.2529702731    1.7738571684
     H     2.4704335621   -0.6754308631    1.7483459411
     H     1.9742604703    1.5287024254   -1.7150016833
     H     4.4085934424    2.0467751962   -1.8414157533
     C     0.9339190649   -4.8606357678   -0.0367312780
     C     0.1573892193   -4.3066010707    0.9818071844
     C    -0.0846704921   -2.9375808765    0.9721648314
     N     0.4028300688   -2.1167075937    0.0174949235
     C     1.1564691159   -2.6593714904   -0.9631631131
     C     1.4416389827   -4.0184702924   -1.0266598430
     H     1.1398061494   -5.9264956418   -0.0578419286
     H    -0.2577698389   -4.9224139037    1.7724942294
     H    -0.6813226982   -2.4675264041    1.7458403603
     H     1.5326203658   -1.9701934435   -1.7110958204
     H     2.0520687014   -4.4043313417   -1.8361552238
     C    -4.8623459964   -0.9292072538   -0.0343832597
     C    -4.0209898159   -1.4370239641   -1.0249710849
     C    -2.6617597340   -1.1524269536   -0.9621777127
     N    -2.1181752928   -0.3992316220    0.0183307471
     C    -2.9382902650    0.0884470274    0.9735350489
     C    -4.3074059277   -0.1531036890    0.9839705488
     H    -5.9282925360   -1.1347020932   -0.0548898887
     H    -4.4075975726   -2.0470358138   -1.8344274485
     H    -1.9732248052   -1.5285510482   -1.7106942054
     H    -2.4675624623    0.6848216651    1.7470114127
     H    -4.9225791302    0.2620708066    1.7751433518
     C     0.0046263983   -0.0034975430    3.8693306429
     N     0.0024164907    0.0022463343    2.7080736212
     C     0.0082327220   -0.0110203300    5.3286027957
     H     0.2540077629   -1.0116242395    5.6980813577
     H    -0.9779613537    0.2743642683    5.7081052452
     H     0.7517790375    0.6981734587    5.7058852627
     C    -0.0090115624   -0.0036818002   -3.8995007265
     N     0.0007246679    0.0012628160   -2.7380130376
     C    -0.0223745557   -0.0101963930   -5.3590621889
     H     0.2570795371   -1.0001622784   -5.7330613076
     H     0.6882674533    0.7274458921   -5.7449684001
     H    -1.0232973608    0.2371653397   -5.7265586057
