22
-8.2137864942641045e+02 frame 53   xyz file generated by TeraChem
    Cr     0.0936575391    0.1361889660    0.0399101334
     C    -0.3148912650    3.1399501596    0.2447706516
     O     0.3927871078    2.0753342932    0.3553943472
     O    -1.6144849356    2.9460500018   -0.1073493210
     H    -1.8165858903    1.9109729288   -0.1767454267
     C     3.3313531165   -0.6802233141    0.3148961310
     O     2.3133815894    0.0404818280    0.1392660605
     O     3.0274854716   -2.0537455730    0.4012195591
     H     2.0459386007   -2.1370484671    0.2651740199
     C    -0.5526624811   -3.1541156589   -0.1906146126
     O     0.1336712706   -2.1123307794   -0.0200528913
     O    -1.9111838976   -2.8598905950   -0.4253455907
     H    -1.9665037241   -1.8712343424   -0.3885464950
     N    -1.9100431604    0.3236220488   -0.2477730265
     H    -2.4338499881   -0.1266259262    0.5014830259
     H    -2.1782507384   -0.0489453898   -1.1584033234
     N    -0.2187513244   -0.1487369651    2.0700348362
     H     0.4322329996    0.5335213553    2.4795184777
     H     0.2590673991   -1.0447184158    2.2253779338
     N     0.3087068133    0.3491829304   -2.0165764825
     H     0.2076405820    1.3667120207   -2.1267261269
     H     1.3256258587    0.2321375032   -2.1088238845
