15
-7.7779395138835116e+02 frame 72   xyz file generated by TeraChem
    Fe    -1.2978365308    0.6012991178    0.1941815008
     F    -1.6316796935    2.2126455750   -0.6641457969
     F     0.5644015384    0.7904709207   -0.4175731371
     F    -1.0948384847   -1.2072862762   -0.3905940954
     F    -3.1157959561    0.2951716905    0.4486533035
     F    -0.9399642579    0.8717543829    1.9790583671
     O     0.7725043100   -0.5769261807   -3.8104084073
     C     0.7597688574   -1.5787058063   -2.7963872773
     C     1.2070440448    0.6780264972   -3.2931622162
     H     0.8494250853    1.4520980986   -3.9866812394
     H     2.3172587864    0.7248796138   -3.2749434922
     H     0.8351215085    0.8609712842   -2.2680568494
     H     0.3611898406   -2.4878714685   -3.2702903869
     H     0.1407159321   -1.3059175953   -1.9266229786
     H     1.7888923590   -1.8015267697   -2.4486094062
