22
-1.3207390141647122e+03 frame 265   xyz file generated by TeraChem
    Fe    -0.6447302084    0.0825544514    1.1774279228
     P    -3.3060640342    2.9479126102   -0.3900400444
     H    -1.8875876175    2.8868935836   -0.4499535008
     H    -3.3691310795    4.3259570358   -0.7558570990
     H    -3.3320069219    3.2215100868    1.0046254966
     P     3.7773095800   -0.1038036448   -0.9584853677
     H     3.5089042108   -1.1019573654    0.0186606605
     H     3.1187964597   -0.8140603680   -2.0000244738
     H     5.0597224526   -0.6371264969   -1.2822461208
     P    -0.0696264733   -2.5104392502    1.0813834203
     H     1.2075681022   -3.1045558264    1.2544233561
     H    -0.7647264355   -3.3667199967    1.9700429912
     H    -0.4084730393   -3.2044348641   -0.1061639684
     N    -2.4841394994   -0.2223241547    0.8710407648
     H    -3.1960378760   -0.2518024494    1.5976173805
     H    -2.9504982931   -0.1392351050   -0.0295485270
     N    -0.1084840815    0.5567692996    2.9171881729
     H     0.7502957349    1.0550417564    3.1365208795
     H    -0.7217354222    0.5877518450    3.7275859720
     N     0.3870174133    0.7532583747   -0.2528848758
     H     0.0666395175    0.8262716102   -1.2154901368
     H     1.2218117754    1.3242604851   -0.1450223720
