34
-1.1411282135104477e+03 frame 90   xyz file generated by TeraChem
    Fe    -0.2646032105   -0.1362481571    0.1333660758
     C     0.1963679661    2.1668696300    0.5558776623
     O     0.3628463237    3.2640849031    0.7552607847
     C     2.1228250804   -0.5674597805    0.6759442943
     O     3.2025357233   -0.7488635210    0.9447947072
     C    -0.4974576617   -2.4702815839   -0.2559786201
     O    -0.6563529767   -3.5637048335   -0.4811547746
     C    -4.1234895667    1.1403033407   -1.3100721959
     C    -2.7381217070    1.1347026983   -1.3065520442
     N    -2.2890782259    0.2738984973   -0.3233177832
     C    -3.3875270562   -0.2337065084    0.2590616145
     N    -4.4961323497    0.2736136705   -0.3192273623
     H    -5.4544169219    0.0432994123   -0.0632259776
     H    -4.8370704857    1.6800035910   -1.9178897489
     H    -2.0679636211    1.7031665714   -1.9336876593
     H    -3.4093962269   -0.9488610650    1.0685379403
     C    -1.1993280905   -0.0221681518    4.4560172372
     C    -1.1975772357    0.4625755283    3.1461907037
     N    -0.5818004696   -0.4454864648    2.3183338769
     C    -0.2154752096   -1.4674842173    3.1093871807
     N    -0.5758431455   -1.2309902557    4.3938190987
     H    -0.4001180880   -1.8523930750    5.1819382237
     H    -1.5816906325    0.4010421178    5.3756783236
     H    -1.5964765354    1.4038431683    2.7959940587
     H     0.2988538707   -2.3682669419    2.8030421282
     C     0.6186653002   -0.1587509284   -4.2286362295
     C    -0.1033154570   -0.4891049471   -3.0735365017
     N     0.4774194803    0.1024187661   -1.9818419014
     C     1.5334800976    0.7842688908   -2.4568674409
     N     1.6345180548    0.6372675428   -3.8015585933
     H     2.3559313499    1.0515095638   -4.3904779011
     H     0.4748438127   -0.4339771871   -5.2655899709
     H    -0.9818635425   -1.1147136782   -3.0073834872
     H     2.2297780494    1.3787228805   -1.8807367519
