25
-1.9661861802735557e+03 frame 686   xyz file generated by TeraChem
    Mn   -86.6020102208   -9.2298195678  -29.6909351028
     S    39.1094301986   29.6476350142    9.4693018065
     H    39.8520156433   28.9023776136   10.3214569863
     H    39.0191493765   30.6875326383   10.3313636196
     S    36.6366968075   28.4900201421   10.5169826878
     H    35.8930861304   29.2478229294    9.6768966668
     H    36.7185586194   27.4596228490    9.6427216309
     S    13.6291614349  -48.9772841595    8.6730635669
     H    12.9186674350  -49.0404070651    9.8214184715
     H    12.5198735690  -48.8801736822    7.9064385927
     C   -89.4739050410   -8.7497687255  -28.3388051839
     N   -88.4246789346   -8.9124409410  -28.8079871909
     C   -90.7843584277   -8.5428250652  -27.7525730937
     H   -91.5190255736   -8.3696146491  -28.5471090989
     H   -90.7576680165   -7.6715502429  -27.0883796840
     H   -91.0760219672   -9.4287030061  -27.1772286701
     S   -85.0990737080  -10.6901617495  -28.1326915382
     H   -84.9111750644   -9.8719662257  -27.0735222596
     H   -83.8674600345  -10.4783029861  -28.6446190496
     C   -85.3034788334   -8.6898514522  -32.5746281693
     N   -85.7472020813   -8.8984249691  -31.5223918303
     C   -84.7505583253   -8.4345754389  -33.8911204314
     H   -84.1611636599   -9.2987560745  -34.2178894106
     H   -84.1065715541   -7.5486173194  -33.8561055941
     H   -85.5647201132   -8.2621211799  -34.6041759825
