20
-7.8048074586091445e+02 frame 88   xyz file generated by TeraChem
    Cr     0.5336570589   -0.3977272265    1.2198373071
     C     0.1620940171    1.4997481002    0.1720042821
     N    -0.0215624891    2.5298794797   -0.3671982117
     C     2.6654635683   -0.0798764519    0.8622610601
     N     3.8141333199    0.1316750924    0.7254019935
     C    -0.0211484123   -2.0985780528   -0.6980202256
     N    -0.2521263247   -2.7826777749   -1.6325723797
     C    -1.4244647490   -0.1808779239    2.1706033322
     N    -2.4509290680   -0.0230154929    2.7224256429
     C     1.0804472963   -1.8230799007    2.7815879049
     N     1.3832154221   -2.5525965750    3.6527597250
     O    -0.4448139637    0.3686100563   -2.9006182165
     C    -0.5753829771   -0.5441261789   -3.8901451209
     C    -0.7433499243    0.1007850575   -5.0858254444
     C    -0.7098253922    1.5106408355   -4.7888376620
     C    -0.5223740867    1.6068572830   -3.4369307077
     H    -0.5188747220   -1.5688162006   -3.5320317013
     H    -0.8730909345   -0.3658292490   -6.0562129877
     H    -0.4146728437    2.3983139655   -2.7040148931
     H    -0.8068117261    2.3354804431   -5.4864354245
