31
-8.6475732105379302e+02 frame 137   xyz file generated by TeraChem
    Fe    -0.0052520136    0.0818300251   -0.1356115877
     C    -0.9165934340    3.1395500369   -0.4624092326
     O    -0.0904567817    2.2375915377   -0.4756854205
     H    -0.6151708062    4.1736651296   -0.6801653372
     H    -1.9752417750    2.9453756103   -0.2342529229
     C     2.9093887582    1.1308785827   -0.7224126473
     O     2.1727828273    0.2698271853   -0.2583805384
     H     4.0004359170    1.0117779597   -0.6659736835
     H     2.5039595283    2.0349586656   -1.1994652622
     H     1.2220415433   -4.7336951496    1.6617528293
     H    -0.1682762685   -5.1325865339    0.6094262522
     C     0.7821537697   -4.5970876564    0.6709966203
     N     0.5470312918   -3.2028378812    0.4512226906
     C     0.3599450185   -2.0715287704    0.2676114796
     H     1.4681739994   -4.9670329845   -0.0947888918
     H    -4.8706461645   -0.2446537593    1.8702353769
     H    -5.3208683772    0.1656110437    0.1868960371
     C    -4.7028604398   -0.4792277829    0.8163213591
     N    -3.3241875666   -0.2564703390    0.5029617449
     C    -2.2025709058   -0.0836884607    0.2575538697
     H    -4.9455104797   -1.5272193978    0.6242414536
     C     1.0184719764    0.5371248378    2.8700391779
     O     0.1846114120    0.6144008543    1.9793871707
     H     2.0030228081    0.0748614434    2.6991074260
     H     0.7984978150    0.9309539189    3.8723845355
     H    -1.1371010202    0.0967878418   -5.2840558534
     H     0.4794852596   -0.6658738913   -5.3308198309
     C    -0.5030362387   -0.6816298331   -4.8528286560
     N    -0.3448615812   -0.4325335795   -3.4524088057
     C    -0.2160384947   -0.2378041109   -2.3143405713
     H    -0.9683227039   -1.6604272732   -4.9912918381
