22
-8.1634415673419267e+02 frame 34   xyz file generated by TeraChem
    Mn     0.0033615788   -0.0003765686    0.5329193941
     C    -0.3594937700    2.3748661073    0.0465606256
     N    -0.5274303475    3.4745041858   -0.3428071021
     C     2.3247090195    0.3552627154    0.1213424519
     N     3.4694752268    0.5292607714   -0.0883911378
     C     0.3663599762   -2.3751868081    0.0463248411
     N     0.5337086228   -3.4747377435   -0.3435397423
     C    -2.3179833738   -0.3556189102    0.1222852957
     N    -3.4628026878   -0.5295340384   -0.0871853699
     C     0.0043376171   -0.0011205449    2.8510249584
     N     0.0048123197   -0.0020675308    4.0269329070
     C    -0.0089507258   -0.0016669289   -5.1273312344
     C    -0.1956277794    1.1822732204   -4.4139015898
     C    -0.1832607694    1.1353839296   -3.0145695189
     N     0.0008918315   -0.0003592206   -2.3311260430
     C     0.1801497260   -1.1367681333   -3.0147664471
     C     0.1827034523   -1.1849392301   -4.4141334594
     H    -0.0128560327   -0.0021703874   -6.2188673950
     H    -0.3487830976    2.1320853702   -4.9241054087
     H    -0.3214120224    2.0267844148   -2.4020210706
     H     0.3220895529   -2.0277088096   -2.4024175281
     H     0.3320182445   -2.1352586216   -4.9245340825
