29
-1.7415406217693758e+03 frame 64   xyz file generated by TeraChem
    Mn     0.0048246976   -0.0001063875    0.0097716114
     P    -0.4711059294    2.7544165726    0.4391902958
     H    -1.7280614319    3.1587824893    0.9409926613
     H     0.3441999839    3.4500001762    1.3589783107
     H    -0.3818192900    3.6612623231   -0.6395143968
     P     2.7660625382    0.3823649609    0.4833546677
     H     3.2180496575    1.6082939128    1.0197342532
     H     3.4247959154   -0.4848549432    1.3825423040
     H     3.6735310862    0.2857615774   -0.5942962084
     P     0.4378346267   -2.7678659598   -0.3813978264
     H     1.7068690433   -3.3298172743   -0.1185626385
     H    -0.3445571975   -3.6887537834    0.3497676788
     H     0.2397634096   -3.3103633214   -1.6700803161
     P    -2.7541513995   -0.3877927320   -0.4819353129
     H    -3.1810663712   -1.5513491416   -1.1595760313
     H    -3.6543018898   -0.4432779716    0.6046314846
     H    -3.4412926288    0.5638708736   -1.2674589929
     H    -0.6305836880    0.1990016372    5.2945353755
     H    -1.6571995709   -1.2197972342    4.9228343377
     C    -0.6772828664   -0.7600734378    4.7729971975
     N    -0.4774890939   -0.5374141536    3.3716585458
     C    -0.3163773213   -0.3575124371    2.2354081816
     H     0.1077099722   -1.4247017384    5.1419169129
     H     0.5098734383    1.8257184124   -4.9688985821
     H     1.7360781856    0.5221318384   -4.9997070364
     C     0.7029264424    0.7732001086   -4.7473873597
     N     0.4972796616    0.5466090844   -3.3476477676
     C     0.3311858273    0.3629988824   -2.2127999668
     H     0.0156084086    0.1401736029   -5.3139032061
