59
-1.8187621112811287e+03 frame 102   xyz file generated by TeraChem
    Cr    -0.0126675732    0.4497769504   -0.6584328475
     C     0.7766968172    5.1427791571    0.7035967152
     C     1.2798029915    4.0940005781    1.4764726189
     C     1.0351964509    2.7874973723    1.0732199142
     N     0.3231267489    2.4874315806   -0.0341624879
     C    -0.1580986966    3.5042151829   -0.7763691646
     C     0.0459627146    4.8396121214   -0.4420541285
     H     0.9590482202    6.1750472668    0.9869077296
     H     1.8610155141    4.2815918114    2.3732988896
     H     1.4171809580    1.9449762793    1.6392107857
     H    -0.7091774633    3.2287655165   -1.6671966608
     H    -0.3509759146    5.6176569601   -1.0846481412
     C     4.8034145921   -0.4162856400    0.1208365809
     C     3.8301852955   -1.1347072054    0.8168859861
     C     2.4909888158   -0.8589605198    0.5697980576
     N     2.0872199494    0.0791049071   -0.3138686887
     C     3.0326166062    0.7779532855   -0.9809121586
     C     4.3938140299    0.5549109433   -0.7908202103
     H     5.8588595982   -0.6105361033    0.2872802430
     H     4.0990139737   -1.8982840737    1.5392472753
     H     1.7053532491   -1.3946170312    1.0911229392
     H     2.6874979783    1.5305968364   -1.6829509735
     H     5.1104751644    1.1398019935   -1.3572963333
     C    -0.7321050337   -4.4146235323   -1.3667213510
     C    -1.4582950794   -3.7389837794   -0.3851212167
     C    -1.2319980670   -2.3797092919   -0.2006920822
     N    -0.3342686143   -1.6814515967   -0.9274364692
     C     0.3639994437   -2.3403488653   -1.8771637523
     C     0.1933292392   -3.6993198814   -2.1246848095
     H    -0.8895918041   -5.4749594060   -1.5401071886
     H    -2.1954531993   -4.2505120517    0.2248574150
     H    -1.7866569453   -1.8213999371    0.5455342753
     H     1.0531923756   -1.7414947217   -2.4627970911
     H     0.7746544955   -4.1774279495   -2.9058008602
     C    -4.8526578634    1.2656588819   -0.0902072181
     C    -4.3169332259    1.1872002304   -1.3750319072
     C    -2.9551417586    0.9418161755   -1.5243270996
     N    -2.1320525510    0.7754231955   -0.4682939765
     C    -2.6525666746    0.8523560372    0.7760617015
     C    -4.0032670656    1.0937821414    1.0039813489
     H    -5.9112868844    1.4582672041    0.0568240977
     H    -4.9374520597    1.3159615683   -2.2555388164
     H    -2.4812748785    0.8891745259   -2.4998282957
     H    -1.9568854168    0.7038205813    1.5991676543
     H    -4.3761876101    1.1483352958    2.0214777517
     C     0.1084018242   -0.8783329288    5.7370886733
     C     0.0563690758    0.4579829565    5.3416754645
     C    -0.1181494513    0.7461589123    3.9884233010
     N    -0.2383623865   -0.1942420671    3.0366537879
     C    -0.1902795422   -1.4761555271    3.4354677929
     C    -0.0182464125   -1.8679858332    4.7621975921
     H     0.2421466911   -1.1429317932    6.7818993294
     H     0.1465516260    1.2634145024    6.0636852575
     H    -0.1670262200    1.7781777123    3.6472901152
     H    -0.2978994747   -2.2232971111    2.6511906924
     H     0.0126813427   -2.9217497549    5.0208113605
     S     0.1048192778    0.7524632547   -3.3577155776
     C     1.0762299940    2.1224500525   -3.4037747788
     N     1.7656064377    3.0726670707   -3.3679274206
