25
-1.7420196773504754e+03 frame 181   xyz file generated by TeraChem
    Co    -0.3655673694    0.1729420514    0.1875275017
     C    -0.0838905038    2.6598504861   -1.2084851764
     O    -0.2098323577    2.2705104260   -0.0160377435
     O     0.0267019819    4.0310941990   -1.2933027282
     H    -0.0069426898    4.3522348326   -0.3564834713
     C     2.5433657839   -0.6487722819    1.2404056657
     O     1.7987087797   -0.4875572024    0.2395957744
     O     2.4008397581   -1.2559759567    2.3075387772
     H     1.2458100266   -2.8553703824    1.1725114591
     C     0.5980404753   -2.9780774668    0.2977621570
     O    -0.5675932922   -2.6433979289    0.2270084916
     O     1.2492062692   -3.5819432642   -0.7187913025
     H     0.6290691287   -3.5611051070   -1.4741141556
     P    -2.6731201466    0.1436058506   -0.1704087120
     H    -3.3880173934   -1.0181931508   -0.5891662150
     H    -3.6634637631    0.5301423498    0.7872892210
     H    -3.1857269884    0.9832967061   -1.1984913553
     P    -0.4446330915    0.2044147110    2.6067570278
     H     0.5303077883    0.8758152282    3.3868042594
     H    -1.5644138495    0.8524703816    3.2166809279
     H    -0.5131394283   -0.9511859913    3.4286273119
     P     0.1652967268    0.0198925494   -2.3112243812
     H     1.4132066369    0.5299387757   -2.7232707260
     H     0.3808465039   -1.2914157252   -2.8933934601
     H    -0.5924770872    0.4830532257   -3.4173231195
