43
-8.3599919402584692e+02 frame 48   xyz file generated by TeraChem
    Mn    -0.1075466380    0.0879266149   -0.0012674274
     O     0.0249916481    2.5301069427    0.0722017875
     C     1.1272212479    3.2471309384   -0.4610361682
     C    -1.2437914054    3.0987993273   -0.2494569418
     H    -1.9905801848    2.3827033129    0.1062562166
     H    -1.3434746299    3.2252473666   -1.3371310858
     H    -1.3615153892    4.0780237059    0.2380158202
     H     2.0203825756    2.6994084267   -0.1599935000
     H     1.1596388537    4.2711441977   -0.0601690780
     H     1.0779431396    3.2850912190   -1.5573625509
     O     2.4232817202    0.0919693033    0.4459751458
     C     3.2744522042    0.1975304830   -0.6965567083
     C     3.1146274212    0.1310766377    1.6824230342
     H     2.3580144557    0.0370917052    2.4615219818
     H     3.6592968298    1.0805451984    1.8020499732
     H     3.8379065882   -0.6956255022    1.7588006829
     H     2.5762746068    0.2084460855   -1.5431806939
     H     3.9670592710   -0.6571304825   -0.7419758777
     H     3.8645601744    1.1257476252   -0.6497078016
     O     0.2894303530   -2.5107890318    0.0497454803
     C    -0.8542012652   -3.2724187937   -0.3115182946
     C     1.5160272259   -3.1246393933   -0.2983397427
     H     2.3033269879   -2.4585586275    0.0549994454
     H     1.6046346761   -3.2491128037   -1.3876600752
     H     1.6184075429   -4.1107022056    0.1811848896
     H    -1.7103848564   -2.6568744110   -0.0307892292
     H    -0.8675989621   -4.2361697279    0.2207324011
     H    -0.8718046120   -3.4635063461   -1.3950049897
     N    -2.0512447545   -0.1232297352    0.4300332089
     H    -2.7175145047   -0.2452133231   -0.3305394574
     H    -2.5167309510   -0.4238528148    1.2842641563
     O    -0.0009102602   -0.0780329535    2.5445996577
     C    -0.5813188739    1.0728109632    3.1467245995
     C    -0.3586374314   -1.2910256842    3.1911021696
     H     0.0745515336   -2.0962950511    2.5966692657
     H    -1.4500194900   -1.4152733766    3.2225704876
     H     0.0353213355   -1.3184736307    4.2183978208
     H    -0.2749806127    1.9324656625    2.5469579520
     H    -0.2284141644    1.1880761667    4.1827367877
     H    -1.6766321153    1.0064670875    3.1355166515
     N     0.4386168321    0.1510735868   -1.9558768863
     H     0.0347074289    0.8963870042   -2.5252273792
     H     0.2845174030   -0.7040547930   -2.4928914261
