10
-2.5392559010359082e+03 frame 168   xyz file generated by TeraChem
    Fe    -8.7629539805  -44.0488315299   30.2889758214
    Cl     4.4028405842   24.8658065961  -17.0493181729
    Cl    -7.0881983155  -43.3250411484   28.7013050019
    Cl    -9.0831990143  -46.4265553194   29.9033665500
    Cl   -10.8784832549  -42.9090512687   29.9215648347
    Cl    -8.2742013213  -43.6440048594   32.6244794310
     C     4.9545065903   22.0211133267  -17.6171721870
     O     4.7640366516   21.3720738359  -18.6325729204
     H     4.2086325499   22.0979521732  -16.8072493454
     H     5.9022340007   22.5486500352  -17.4131083431
