63
-1.5762930578740566e+03 frame 45   xyz file generated by TeraChem
    Fe     0.0223335394    0.0006451955    0.0038837700
     C     0.0433106423    4.9952472677    0.7497957381
     C     1.2009824763    4.2365179690    0.9273979364
     C     1.1465637087    2.8642211011    0.7114054780
     N     0.0178834847    2.2182865451    0.3380413751
     C    -1.0972678080    2.9646215452    0.1709063776
     C    -1.1264881210    4.3418791973    0.3621404249
     H     0.0531810741    6.0690817579    0.9097598137
     H     2.1363277952    4.6959019766    1.2292074679
     H     2.0255457337    2.2466840695    0.8404217114
     H    -1.9866278055    2.4256433493   -0.1280357969
     H    -2.0531085860    4.8853112177    0.2105280608
     C     5.0547586812   -0.0576699967    0.0273278581
     C     4.3339148196   -0.4429994113    1.1586440186
     C     2.9443025434   -0.4222315431    1.1104681858
     N     2.2534754294   -0.0419028949    0.0114055742
     C     2.9610779122    0.3288134406   -1.0804527603
     C     4.3512999791    0.3349016110   -1.1124517122
     H     6.1405241240   -0.0636906693    0.0335727269
     H     4.8354024701   -0.7564458411    2.0681523655
     H     2.3533808424   -0.7175238658    1.9688320652
     H     2.3831187633    0.6300734555   -1.9458373341
     H     4.8667315472    0.6421389965   -2.0162760811
     C    -0.0666720518   -4.9810631729   -0.8209600441
     C    -1.2066931194   -4.2960664616   -0.3983491526
     C    -1.1254362194   -2.9262892645   -0.1748061050
     N     0.0133943746   -2.2159652988   -0.3431861288
     C     1.1113978124   -2.8915809673   -0.7512618024
     C     1.1136764205   -4.2597442900   -1.0007264479
     H    -0.0976194201   -6.0505431825   -1.0054600683
     H    -2.1493078860   -4.8105147998   -0.2439052253
     H    -1.9898884883   -2.3627526195    0.1509097851
     H     2.0093424363   -2.3021204074   -0.8816141715
     H     2.0271418520   -4.7442844624   -1.3290079367
     C    -5.0397119694    0.0453972109    0.0093343656
     C    -4.3285334967    0.0766323683   -1.1911812911
     C    -2.9385953784    0.0702601510   -1.1500449505
     N    -2.2369237709    0.0345474504    0.0064407557
     C    -2.9363753121    0.0059432700    1.1645998680
     C    -4.3262493921    0.0093079486    1.2083818027
     H    -6.1254650611    0.0495746541    0.0104946094
     H    -4.8378057868    0.1060336686   -2.1486689211
     H    -2.3530757775    0.0943385749   -2.0606855987
     H    -2.3501772661   -0.0214334952    2.0747050098
     H    -4.8338106169   -0.0157322847    2.1668960541
     O     0.0134554587   -0.3398452436    2.3790197988
     C    -0.1005795709   -1.5613059348    3.0350545800
     C    -0.1731393497   -1.3602908922    4.3711705352
     C    -0.1038936695    0.0608629962    4.5854647423
     C     0.0077418058    0.6393081209    3.3672041843
     H    -0.1099762600   -2.4358555830    2.4064711821
     H    -0.2636010569   -2.1274210730    5.1277004130
     H     0.0949410129    1.6575670448    3.0271995607
     H    -0.1320026491    0.5763946377    5.5354707109
     O     0.0168040743    0.3434439838   -2.3741944317
     C    -0.0465182576   -0.6316334019   -3.3641159493
     C     0.0210517150   -0.0513348719   -4.5847899008
     C     0.1349237759    1.3668497594   -4.3700489782
     C     0.1286748281    1.5646156978   -3.0313820495
     H    -0.1326712807   -1.6494495127   -3.0223246356
     H    -0.0055502306   -0.5637014291   -5.5365322672
     H     0.1825520458    2.4362271725   -2.4008446620
     H     0.2096844713    2.1343101252   -5.1279635645
