35
-1.0140619842397584e+03 frame 116   xyz file generated by TeraChem
    Mn    -0.0765709526    0.1389739141    0.0180699181
     C     0.4959476178    3.1963097502   -0.8971804788
     O     0.1306705645    2.3917899717   -0.0507540332
     H     0.5777831876    4.2653159791   -0.6534779877
     H     0.7484572304    2.8747062696   -1.9187187165
     C     3.0705862687   -0.7909580115    0.3529332591
     O     2.2413250044    0.0173837492   -0.0388393746
     H     2.7705881020   -1.7623640993    0.7759936747
     H     4.1454936329   -0.5650946351    0.2917281332
     C    -0.6269561189   -3.1867368255   -0.4636798281
     O    -0.1044589208   -2.2265894360    0.0814522928
     H    -1.4028617299   -3.0621421676   -1.2355646646
     H    -0.3334937123   -4.2137042942   -0.1980145516
     C    -3.1681425320    0.5798556437    0.9474845626
     O    -2.3531103176    0.2689070420    0.0893916718
     H    -2.8500500878    0.8389291540    1.9684329229
     H    -4.2428865264    0.6036267388    0.7162013877
     C     0.4573860753   -0.4589058540    4.3015251270
     C     0.2172776165   -0.8945146328    3.0286302966
     N     0.1422768159    0.1972336928    2.1731464281
     C     0.3379112375    1.2770470720    2.9298896249
     N     0.5291148906    0.9160587941    4.2145208208
     H     0.6998081523    1.5506683319    4.9860530730
     H     0.5777825005   -0.9859351361    5.2356968945
     H     0.0928903720   -1.9018253782    2.6628674721
     H     0.3496658038    2.2996028314    2.5834534261
     C     0.4009768141   -0.2397031880   -4.3058718291
     C     0.8742058278   -0.1492917666   -3.0267573556
     N    -0.1933306679   -0.0508119695   -2.1435877095
     C    -1.2968340344   -0.0814613435   -2.8905937144
     N    -0.9730799539   -0.1961789937   -4.1947613527
     H    -1.6311640936   -0.2362114409   -4.9645289807
     H     0.9019334874   -0.3296671985   -5.2576826717
     H     1.8941117087   -0.1447409992   -2.6748532074
     H    -2.3113675902   -0.0160625662   -2.5267197357
