34
-2.0904226430175167e+03 frame 139   xyz file generated by TeraChem
    Mn    -0.0139503755    0.1000441867   -0.0505859918
     C    -0.2804159636    2.4660494431    0.3285201822
     S    -0.3616610285    3.9586023533    0.5963861054
     C     2.3420506035    0.5081771652   -0.3983274960
     S     3.8288410089    0.7617370266   -0.5746081881
     C     0.4267508465   -2.2296541121   -0.5128839682
     S     0.7721009755   -3.6566304717   -0.9020096026
     C    -4.5103104961   -0.0527784767   -0.0121619630
     C    -3.2666238196    0.4807542202   -0.3486276555
     N    -2.2684803721   -0.2752701615    0.2208413910
     C    -2.8887039223   -1.2504941452    0.8888387124
     N    -4.2374435902   -1.1380664459    0.7651400339
     H    -4.9261069198   -1.7581650976    1.1842803001
     H    -5.5162418918    0.2602638757   -0.2559777297
     H    -3.0636543980    1.3610907642   -0.9399472608
     H    -2.4130632146   -2.0342103560    1.4610472945
     C     0.3485208066    0.0886336661    4.4500269632
     C    -0.2378649637    0.4447180154    3.2388655430
     N     0.3805890303   -0.2188486836    2.2086282499
     C     1.3312722662   -0.9691227085    2.7819057650
     N     1.3309781469   -0.8023549543    4.1263983035
     H     1.9566888606   -1.2623478430    4.7827619255
     H     0.1423026155    0.3944806915    5.4663251762
     H    -1.0593171500    1.1278550245    3.0803467665
     H     2.0202186423   -1.6259734392    2.2707747190
     C    -1.3643284986    0.1390853556   -4.3854454371
     C    -1.3719231284   -0.2963588696   -3.0557184546
     N    -0.4431146128    0.4074773117   -2.3323001029
     C     0.1227550130    1.2541343934   -3.1967554919
     N    -0.4148266986    1.1111514232   -4.4383375512
     H    -0.1494608851    1.6406631850   -5.2655823411
     H    -1.9397976020   -0.1727665185   -5.2464583527
     H    -1.9771096707   -1.0781562221   -2.6222643460
     H     0.9023556464    1.9688575453   -2.9744506987
