24
-1.0949203586879491e+03 frame 83   xyz file generated by TeraChem
    Fe     0.0196545573    0.0262217152    0.0780526503
     C    -0.9909647273    2.9858003373    0.4230393463
     O    -0.1018807417    2.1400051713    0.3964798537
     H    -0.7463990392    4.0352266512    0.6352195897
     H    -2.0399935023    2.7166661190    0.2344144449
     C     2.9318365911    1.0693677641    0.4256141644
     O     2.1061315207    0.1602621714    0.3866929103
     H     3.9968274394    0.8354319799    0.5536127509
     H     2.6270804782    2.1210772953    0.3358412159
     C     1.0171678054   -2.9457233896   -0.2190533866
     O     0.1458496993   -2.0830034724   -0.2645025957
     H     0.7705142004   -3.9904574670   -0.4511410701
     H     2.0532810237   -2.6973746200    0.0520210317
     C    -2.8731596931   -1.0225764658   -0.3100851940
     O    -2.0632643755   -0.1013170473   -0.2549277699
     H    -3.9424425795   -0.8042094388   -0.4297717025
     H    -2.5501898822   -2.0705036411   -0.2461244660
     C    -0.0791766452   -0.2738220728    3.2897017858
     O    -0.3892663095   -0.3832612364    2.1100557607
     H     0.8195199669    0.2788380797    3.6020528271
     H    -0.7022806208   -0.7324561931    4.0698193602
     S     0.4592754937    0.5091629330   -2.5208079000
     H     0.2997979908   -0.6817619767   -3.1347368261
     H    -0.6955030957    1.0233785507   -2.9931490641
