28
-1.9579352750080286e+03 frame 95   xyz file generated by TeraChem
    Cr    -0.2675500951   -0.4081076443   -0.0214467104
     C     0.0595966286    2.7285886685    0.6652617701
     N     0.0978993829    1.6286803739    0.3096568782
     C    -0.0411898791    4.0910347822    1.1589612095
     H     0.4090655114    4.7933288310    0.4509811953
     H     0.4698638422    4.1479778122    2.1258803156
     H    -1.1077192493    4.3070639254    1.2887630135
     C     2.7910518800   -0.9156714724   -0.9189507411
     N     1.7922918872   -0.7289616387   -0.3662929249
     C     4.0178246439   -1.1516266663   -1.6637188602
     H     4.8254194480   -0.5211245161   -1.2789622763
     H     3.7957803756   -0.9006617568   -2.7088080491
     H     4.3076032958   -2.2037718941   -1.5808072377
     S    -0.5949195856   -2.8435386766    0.3220233459
     C     0.2890240971   -2.9222233761    1.7585809934
     N     0.9071344936   -2.9728256095    2.7559475994
     S    -2.5321635584   -0.1153732900    1.0418996550
     C    -2.8138033957    1.5443087659    1.1861008617
     N    -3.0178688048    2.6920724009    1.3226550502
     C     0.7085471192    1.3554879618    3.9745172458
     N     1.2580225128    2.3748852271    3.8772373457
     C     0.0019070373    0.0831268369    4.0910667917
     H     0.6251862329   -0.7557414990    3.7596886884
     H    -0.8963458772    0.0971666808    3.4619006768
     H    -0.2946740708   -0.0867578970    5.1313955373
     S    -0.7192134850   -0.0805118810   -2.6982541663
     C     0.8181042031   -0.1817055380   -3.3604405734
     N     1.8983767263   -0.2479387532   -3.8245198579
