23
-8.4148833241749014e+02 frame 91   xyz file generated by TeraChem
    Fe    -0.0160194773    0.0121042470    0.0371442020
     N    -0.3368778461    2.1965000882    0.2368745952
     H    -1.2053140076    2.5142178545   -0.2097295765
     H    -0.3929920506    2.5275943393    1.2078224797
     H     0.4029917462    2.7581219907   -0.2011554150
     N     2.1727910808    0.2758105942   -0.2408063522
     H     2.5532276612    1.1403720759    0.1630686127
     H     2.7454192808   -0.4771950137    0.1599881808
     H     2.4279611754    0.3132330274   -1.2347728294
     N     0.1569638971   -2.1425915334   -0.4464400462
     H     1.0263030499   -2.3744249609   -0.9415822261
     H     0.1388635502   -2.7688269165    0.3682135221
     H    -0.5935384683   -2.4787161252   -1.0615867277
     N    -2.1785677910   -0.3145657043    0.4321345929
     H    -2.3902296251   -1.1936370322    0.9196298691
     H    -2.6345490025    0.4185500591    0.9886214846
     H    -2.7139528330   -0.3577682229   -0.4431377773
     N     0.3947239507   -0.2096680894    2.1971290348
     H    -0.4315126353   -0.0560889242    2.7877047660
     H     0.7288579334   -1.1463310205    2.4558686375
     H     1.1089079766    0.4339648901    2.5590843469
     C    -0.3685527701    0.3517088480   -2.2108992116
     S    -0.5948457020    0.5779313926   -3.6855131250
