15
-2.6415299914634643e+03 frame 91   xyz file generated by TeraChem
    Fe    -0.0129865315   -0.1651268623   -0.7498834091
     S    -0.9738513475    2.3070595727   -1.5067950161
     H     0.0775546018    2.8259616066   -2.1740459374
     H    -0.8103193216    3.1150893513   -0.4375885010
     S     2.1576171893    0.8481270465    0.3343198793
     H     3.0323611379   -0.1726361637    0.2184430480
     H     1.8612441736    0.5689587704    1.6383868045
     S     0.4179855009   -2.8307306365   -0.3518471263
     H     1.6221710142   -3.0480210464   -0.9201505214
     H     0.8737937427   -3.0071567910    0.9072831397
    Cl    -1.5795417828   -0.1750963104    0.9247631901
     S     0.8590501191   -0.1027516872    3.8485131880
     H    -0.2560743056   -0.1812482343    3.0794499631
     H     0.5545647627    1.1269048287    4.3129236654
    Cl     0.4304377055   -0.5181362067   -2.9465030171
