33
-1.0324805157537312e+03 frame 99   xyz file generated by TeraChem
    Fe     0.4284808938    0.2590888100   -0.2124924569
     H     0.7394326552    5.4986942295    0.4178776605
     H    -0.3648714364    5.3410629221   -0.9768785568
     C    -0.1830952357    5.0368252880    0.0571397923
     N    -0.0577338170    3.6189259719    0.1138924040
     C     0.0522516219    2.4584748399    0.1262783593
     H    -1.0199036314    5.3537079187    0.6848076562
     H     3.7334564703    1.0016587149    3.7591301783
     H     4.0785629356   -0.7083563790    3.3772497921
     C     3.9319429910    0.2889120127    2.9545782709
     N     2.8264355177    0.2659657095    2.0582832194
     C     1.9210688570    0.2454395601    1.3260438313
     H     4.8309637218    0.5912401651    2.4111635865
     H     1.6826116464   -4.9570978797   -0.3768574482
     H     0.5079978989   -4.8443866982   -1.7168243382
     C     1.3675996111   -4.3660310247   -1.2406736187
     N     1.0061495598   -3.0559813463   -0.8130065180
     C     0.7276672867   -1.9726632754   -0.4823410703
     H     2.1908575928   -4.2973735554   -1.9565740255
     H    -4.5600041650   -1.1926569704   -0.8611017622
     H    -4.7385194722    0.5834558318   -0.8124282086
     C    -4.1562486573   -0.2444028323   -1.2248572661
     N    -2.7982723226   -0.1190172506   -0.8153201320
     C    -1.6803712881   -0.0070259879   -0.5092155765
     H    -4.2045387715   -0.2187295015   -2.3165495878
     C    -1.6911460433   -0.6144436582    3.0482792387
     O    -0.5300169417   -0.3545401737    3.1637238165
     O    -2.5856964847   -0.9925663091    3.9440463307
     H    -2.1705454163   -1.0467188123    4.8359441403
     C     1.3478040797    0.6220527787   -2.0225188511
     O     0.4855165285    1.0023776637   -2.8040630024
     O     2.6357357282    0.4816383407   -2.4093906191
     H     2.6785322206    0.7413600344   -3.3574752146
