22
-7.8433943124164932e+02 frame 110   xyz file generated by TeraChem
    Cr     0.6417470380    0.7918827606    2.1028139832
     C    -2.1528206233    3.3182736774   -1.2873531569
     N    -2.3368250890    4.2414944293   -1.9711531578
     C    -1.9323807989    2.1547176137   -0.4396694110
     H    -0.9576736859    1.6765226250   -0.6164181360
     H    -2.7295310643    1.4207742639   -0.6096364981
     H    -1.9040675283    2.3990206540    0.6295011113
     C     3.5604450208   -0.7188048811    1.5198042855
     N     2.5836921391   -0.1543075919    1.7769638719
     C     4.7691300221   -1.4510816685    1.1619086319
     H     5.5296513456   -0.7619967857    0.7799759908
     H     4.5193098639   -2.1819535536    0.3842019066
     H     5.1708492579   -1.9708534420    2.0377134354
     C     1.7499100214   -2.5717263910   -0.9909031933
     N     2.7987550245   -3.0732563583   -1.0312078608
     C     0.4436431885   -1.9295437806   -0.9345234475
     H    -0.0006495272   -1.9082731405   -1.9359641209
     H     0.5292238078   -0.8877212054   -0.5461109438
     H    -0.2179776339   -2.4967308870   -0.2703708166
     F    -0.9947100570    1.6019646686    2.2922938495
     F     0.9367964755    0.5203608052    3.8807324637
     F     0.6160473545    0.7484354991    0.1154005952
