16
-1.5492310298012824e+03 frame 113   xyz file generated by TeraChem
    Fe     1.3016865878    0.1720185692    0.6875293768
     O     0.2567006029    1.2621863026    1.8069624030
     H    -0.5948913360    1.5490381281    1.4450351759
     O     3.0879819171   -0.1733722014    0.9088292055
     H     3.6054121061    0.6313797433    1.0599119623
     O     0.1988787980   -0.7563198486   -0.7459982347
     H    -0.7752532857   -0.7567126208   -0.6291999211
     S    -2.9932319363   -0.3085247670   -1.7091342522
     H    -1.9088517223   -0.0279433865   -2.6269457801
     H    -3.1356811331   -1.5763349279   -2.1525703427
     S    -0.1851061937    1.1167040875    4.8862234898
     H    -0.1288289206   -0.2321806393    4.8906543776
     H     0.0417046029    1.2057695102    3.5070638573
     S    -0.0794478640    0.2272220419   -3.6003454125
     H     0.2968840451   -0.4250636900   -1.7227999884
     H    -0.0732702576   -1.0123250836   -4.1479934659
