43
-1.1188425870536985e+03 frame 69   xyz file generated by TeraChem
    Co     0.1595415064    0.2158349119    0.1739803550
     C     0.3068053266    5.0514646301   -0.8172025349
     C     1.4448251405    4.2544710734   -0.9416325275
     C     1.3540179990    2.8984406145   -0.6453354680
     N     0.2049216827    2.3149227811   -0.2381070253
     C    -0.8938513292    3.0948954200   -0.1227282427
     C    -0.8853400047    4.4562759713   -0.3992799024
     H     0.3464863129    6.1130456221   -1.0414969686
     H     2.3929724858    4.6717127774   -1.2636805707
     H     2.2203215625    2.2534548155   -0.7338355929
     H    -1.7957991935    2.5898184717    0.2018745115
     H    -1.7966765923    5.0345231237   -0.2896074163
     C     5.0404146960   -0.6870901427    0.2082054864
     C     4.3639125249   -0.3256889820    1.3737207351
     C     2.9948652292   -0.0913268148    1.3121899117
     N     2.2828293628   -0.1942316897    0.1672722282
     C     2.9482771234   -0.5388811544   -0.9598732473
     C     4.3149458562   -0.7934471575   -0.9793821024
     H     6.1089356908   -0.8790299160    0.2240663032
     H     4.8840446075   -0.2258077447    2.3204845342
     H     2.4413301204    0.1948590078    2.1984830285
     H     2.3556294294   -0.6002721525   -1.8643432185
     H     4.7964206100   -1.0680251076   -1.9120304814
     O    -0.1726047634   -2.0365646513    0.1250032784
     H     0.5348594727   -2.6955288732    0.2230563385
     H    -1.0163991544   -2.4835062345    0.3042391521
     O    -2.1511323764    0.1993170898    0.1528855580
     H    -2.8044047276    0.3584545807   -0.5494485532
     H    -2.6485260855    0.1973268552    0.9878395705
     C    -0.4874795803    0.3440055689    5.1053267763
     C    -0.3871105463   -0.8760794119    4.4346364717
     C    -0.2174020603   -0.8713792910    3.0555336165
     N    -0.1461365471    0.2637153329    2.3233003602
     C    -0.2414258058    1.4408149152    2.9837877166
     C    -0.4107525165    1.5221244737    4.3620019169
     H    -0.6196992615    0.3750936718    6.1825161587
     H    -0.4367489441   -1.8195708795    4.9678412232
     H    -0.1282481530   -1.7950776339    2.4981456891
     H    -0.1699315247    2.3407929040    2.3849540078
     H    -0.4781424273    2.4947008139    4.8378851155
     O     0.0454923877   -0.2031757343   -1.9406260874
     H    -0.2219382243   -1.1218310112   -2.1112344251
     H    -0.3448045610    0.3624146991   -2.6268472490
