35
-1.9691503355077805e+03 frame 126   xyz file generated by TeraChem
    Co    -0.0867891458    0.0524315539   -0.2208613447
     P    -0.2867387580    2.6713910592    0.3511519351
     H    -1.4536400355    3.1612251896    0.9757992405
     H     0.6711166517    3.1610695318    1.2636163736
     H    -0.1490934570    3.6546576884   -0.6529754282
     P     2.5712804475    0.4232678290   -0.5395399154
     H     3.1565810524    1.6812953191   -0.2779890147
     H     3.4012204132   -0.3722451688    0.2794305424
     H     3.1744647566    0.1499743113   -1.7862438163
     P     0.4604974393   -2.5813000121   -0.6033175952
     H     1.2477953583   -2.8985615522   -1.7304210046
     H     1.2237033214   -3.2358511172    0.3870251944
     H    -0.5520906816   -3.5526732118   -0.7690333478
     C    -4.5288348853   -0.0069920929    0.3428840417
     C    -3.3159048141    0.4859814187   -0.1801427771
     N    -2.2903280057   -0.3333090684    0.1784860809
     C    -2.8509599438   -1.3165785078    0.9090146181
     N    -4.1928917463   -1.1362192879    1.0172183830
     H    -4.8366186627   -1.7449275963    1.5218267984
     H    -5.5431146067    0.3658595898    0.2721530190
     H    -3.1815107880    1.3694126882   -0.7879093611
     H    -2.3332839228   -2.1508905195    1.3616209869
     P     0.3477069040   -0.2254281081    2.4405795782
     H    -0.5173822374    0.4443026660    3.3327560978
     H     0.3362017299   -1.5039783337    3.0401620237
     H     1.5821699202    0.2376733496    2.9435170212
     C    -1.0107010650   -0.1427148417   -4.5530853872
     C    -1.1173170701   -0.5616359140   -3.2158755111
     N    -0.4213683565    0.2911176521   -2.4075228953
     C     0.1023139580    1.2206721642   -3.2259171958
     N    -0.2401795553    0.9757422446   -4.5164145574
     H     0.0337703254    1.5381054214   -5.3212404848
     H    -1.4178283232   -0.5549458574   -5.4676577476
     H    -1.6641179117   -1.4139389955   -2.8392395718
     H     0.7169279128    2.0596772133   -2.9315114583
