40
-1.0959120769188130e+03 frame 290   xyz file generated by TeraChem
    Fe     0.2071788097   -0.1964380933   -0.7604560261
     O     0.0013171092    1.6558063605   -1.0770113606
     H    -0.9470381114    1.8620179723   -1.0748090611
     O     1.8162177390   -1.1850369850   -0.7241444568
     H     2.4716866273   -0.7925406861   -0.1286760549
     C     0.8248043410   -6.5165921631   -0.2453189803
     C    -0.5655849715   -6.5028241301   -0.1286864859
     C    -1.2156816653   -5.2679890575   -0.1388539025
     N    -0.5817582545   -4.0947982793   -0.2527065874
     C     0.7585984458   -4.1110018172   -0.3641144332
     C     1.4951218542   -5.3010457062   -0.3650630661
     H     1.3716767000   -7.4572623986   -0.2435589739
     H    -1.1359622321   -7.4231413347   -0.0332981468
     H    -2.3004898338   -5.2171257265   -0.0510618050
     H     1.2477338150   -3.1356544087   -0.4584571302
     H     2.5767658489   -5.2623286729   -0.4614147790
     C    -3.3130630212   -0.4654805185    1.8887185504
     C    -4.6802563281   -0.3820728881    1.6111960226
     C    -5.5773041615   -0.1708790881    2.6583913414
     N    -5.2127361504   -0.0399474368    3.9425797558
     C    -3.8987496401   -0.1202696350    4.1999045103
     C    -2.9237163877   -0.3288114347    3.2236979410
     H    -2.5838636093   -0.6352442939    1.0832918230
     H    -5.0410688235   -0.4803268088    0.5905687366
     H    -6.6481147220   -0.1023449681    2.4613076734
     H    -3.6141224385   -0.0108871957    5.2472966843
     H    -1.8739871696   -0.3823382277    3.5011511875
     O    -1.4705207934   -1.0193702165   -0.5101864507
     H    -1.3690731705   -1.9854809463   -0.4359285218
     C     0.6920331191    2.8370542931   -3.8093587498
     C     0.3229977306    1.6700019372   -4.4811593620
     C     0.3621994137    1.6555145908   -5.8751294955
     N     0.7350614905    2.7045933468   -6.6262378717
     C     1.0866817763    3.8175337787   -5.9677004025
     C     1.0828197504    3.9356071184   -4.5764783786
     H     0.6512343554    2.8316292150   -2.7185855509
     H     0.0183980412    0.8004040029   -3.9060674378
     H     0.0803886645    0.7571969928   -6.4248645360
     H     1.3882276373    4.6615530864   -6.5900540463
     H     1.3813850979    4.8715452905   -4.1097070967
