35
-1.3029595385904779e+03 frame 181   xyz file generated by TeraChem
    Cr    -0.2232246457    0.1867153450    0.1481572666
     C     0.3817115741    3.2707996535    0.0075095058
     O    -0.3099783887    2.1957203723   -0.1747779714
     O     1.7045982217    3.0006401063    0.2285569023
     H     1.8775971799    2.0232086755    0.0978263319
     C     2.8155111028   -0.4979932889   -0.3884415525
     O     1.7953554912    0.2384908652   -0.1039470778
     O     2.4977899015   -1.8326869107   -0.3937944251
     H     1.5500815548   -1.9534644556   -0.0861611672
     C    -0.7557190262   -2.8044503153    0.9869149844
     O    -0.1390308485   -1.8320013943    0.3952664866
     O    -2.0264002718   -2.4652253095    1.3489173176
     H    -2.2429823088   -1.5424089794    1.0186345614
     C    -3.3089053738    0.8128520867    0.3423431446
     O    -2.2185617074    0.1303031692    0.5094302623
     O    -3.0743804982    2.0713574745   -0.1007795425
     H    -2.0895251426    2.2403999909   -0.1679744888
     O    -0.1874367904    0.8499209180    2.7732824820
     C    -0.8567032353    0.1254661052    3.7129530249
     C    -0.6690730887    0.6834429939    4.9408140505
     C     0.1735061451    1.8325629272    4.7384747977
     C     0.4348672834    1.8858112096    3.4029003993
     H    -1.3933632382   -0.7303736344    3.3294115413
     H    -1.0809293667    0.3257018927    5.8755060719
     H     0.9961263926    2.5409219408    2.7524381322
     H     0.5303812741    2.5269823842    5.4881288276
     O     0.2983366098   -0.5069729725   -3.2397466714
     C    -0.3950235948   -0.3153279540   -4.3930378835
     C    -0.0630598182   -1.2695950740   -5.3074047365
     C     0.9055191841   -2.1131687762   -4.6629279018
     C     1.0856021768   -1.6059756160   -3.4101303105
     H    -1.0722793151    0.5251691550   -4.3927859176
     H    -0.4598347392   -1.3651194457   -6.3100491657
     H     1.6932334975   -1.8751543323   -2.5555910710
     H     1.3976034660   -2.9838543815   -5.0757267110
