34
-2.1433440087947347e+03 frame 59   xyz file generated by TeraChem
    Co    -0.1523667085   -0.0974839961    0.2105181760
     C    -0.5312725759    2.0026246662    0.6600267235
     S    -0.8407698783    3.4266630323    1.0787234533
     C     2.0162041017    0.1383644110    0.0192596441
     S     3.4990795901    0.4101162524   -0.1390161311
     O    -0.1678422559   -2.2051247675   -0.1619304910
     C     0.8117878108   -3.1169576130    0.2520571672
     C     0.4504076455   -4.3643837078   -0.1137263984
     C    -0.8198448083   -4.2596304241   -0.7889012800
     C    -1.1654015015   -2.9550380120   -0.7994351388
     H     1.6599980242   -2.6932457986    0.7644212275
     H     1.0129277395   -5.2696054076    0.0695369414
     H    -2.0046499535   -2.3927197975   -1.1740831752
     H    -1.3972351844   -5.0720241612   -1.2084868996
     O    -2.3662916083   -0.1767601783    0.1063702069
     C    -3.2353850711   -0.6114230199    1.1097603146
     C    -4.4937061946   -0.6794040875    0.6251197696
     C    -4.4376864661   -0.2745186241   -0.7562618117
     C    -3.1481848982    0.0175578625   -1.0363842287
     H    -2.7832779617   -0.8100626574    2.0675909228
     H    -5.3733605948   -0.9808303522    1.1769507130
     H    -2.6158712678    0.3456761071   -1.9128448502
     H    -5.2681266404   -0.2107691358   -1.4461128811
     C     0.0712618137   -0.4488311249    2.3500159660
     S     0.2908409332   -0.6740992974    3.8334722108
     O    -0.1306299149    0.1212387504   -2.0494110628
     C     0.6541353754   -0.6904201312   -2.8683446493
     C     1.1200060321    0.0299625666   -3.9153761531
     C     0.6225345021    1.3711390115   -3.7650477977
     C    -0.1201964146    1.3916216091   -2.6352678113
     H     0.7286797700   -1.7257574130   -2.5782318154
     H     1.7313578846   -0.3474539246   -4.7237715052
     H    -0.7221578758    2.1391260611   -2.1448800790
     H     0.7855696735    2.2033486743   -4.4361372080
