17
-2.2271525393832762e+03 frame 111   xyz file generated by TeraChem
    Mn     0.8995341177   -0.1970822466    0.5470957317
     C     1.0406467782    1.6207755263    0.2791913013
     S     1.1964979434    3.1579329255    0.0681256871
     C     2.5712163533   -0.4918710505   -0.2605383548
     S     3.9185265029   -0.7329872907   -0.9932117781
     C     0.4694007050   -1.9888691361    0.4396215990
     S     0.1406972067   -3.5105793462    0.3589774400
     C    -3.3694654252   -0.6980599083   -0.4628794997
     O    -3.1993834808    0.4942690371   -0.5105688850
     O    -2.7704765996   -1.6829254700   -1.0809366510
     H    -2.0458173738   -1.3267477041   -1.6653533664
     C     0.0571860583    0.0353088882    2.2101351742
     S    -0.6878786358    0.2423468887    3.5567302526
     C    -0.9296309396    0.8721700401   -2.8984146224
     O    -0.9204252437   -0.3141167547   -2.6811943358
     O    -1.6308736026    1.8422965124   -2.3720633185
     H    -2.2391417164    1.4812236666   -1.6689011360
