25
-1.9742277183603251e+03 frame 105   xyz file generated by TeraChem
    Co     0.0101416764    0.0088099763   -0.0764108764
     P    -0.4086248321    2.6271025041   -0.2541387524
     H    -0.7628708989    3.3250806745    0.9168092594
     H     0.7023549949    3.3648647974   -0.7107279252
     H    -1.4081996600    3.0367269596   -1.1591769704
     P     2.6051303246    0.4467075547    0.6536722538
     H     2.8585647115    1.4948308881    1.5609615882
     H     3.2769464682   -0.6427242262    1.2433822398
     H     3.4372223259    0.7724885871   -0.4359826695
     P     0.3756355796   -2.6101587312   -0.3209111737
     H     1.6391001882   -2.9661521229   -0.8345321911
     H     0.2865029167   -3.4290512002    0.8220133925
     H    -0.4860276628   -3.2685564513   -1.2209268813
     P    -2.7395158815   -0.3334443401   -0.2871582636
     H    -3.2416691964   -1.5795409686    0.1374454836
     H    -3.5623410126    0.5955820330    0.3799838018
     H    -3.1532044593   -0.2449120638   -1.6309984693
     P    -0.4325447448   -0.1605180334    2.5289452034
     H     0.6389782631   -0.6479071402    3.3033829131
     H    -0.7490358553    1.0454959128    3.1848539181
     H    -1.4812178904   -1.0069634286    2.9409021945
     C     0.6791137588    0.1012024529   -3.2834906508
     O     0.3030908282    0.0586640665   -2.1094225637
     H    -0.0503035433    0.0057855922   -4.1004064611
     H     1.7410015493    0.2340050505   -3.5358997909
