29
-1.1455618074463209e+03 frame 294   xyz file generated by TeraChem
    Fe    -1.0832702469   -0.7645328389   -1.0021653129
     C    -1.7462508112    1.9749329401   -2.2139952146
     O    -1.3281510903    1.1873121703   -1.2982329221
     O    -2.7132630500    1.4099892968   -3.0042792084
     H    -2.8723006874    0.4779568724   -2.7042638821
     C     1.8872091610   -1.5295705061   -0.9365707528
     O     0.8478101238   -0.9876711116   -1.4599041335
     O     1.5890126787   -2.3148213801    0.1514661685
     H     0.6172276485   -2.2696563743    0.3583308169
     C    -1.9284460473   -2.0434048668    1.7325967782
     O    -1.2110380191   -1.7439367090    0.6931865121
     O    -3.2179431484   -2.2659546701    1.4493156369
     H    -3.4219093828   -2.2148989764    0.4500281054
     C    -3.7045295853   -2.0374806836   -1.4488783638
     O    -2.7433943842   -1.4743992287   -2.0603842332
     O    -4.7556545658   -2.2782622659   -2.2880219740
     H    -4.4762954167   -1.9354635221   -3.1743875402
     C     1.2660485611   -1.7834575265    4.6882281667
     N     1.6397990826   -2.1011435572    5.7440150396
     C     0.7863976330   -1.3818310640    3.3721195832
     H    -0.2464837951   -1.7398976519    3.1685225846
     H     1.4343179884   -1.7690011781    2.5773033776
     H     0.7789417024   -0.2881789008    3.2976529310
     C     2.5605856872    2.9890583545   -3.0065375819
     N     3.3655827567    3.5350112181   -3.6452748858
     C     1.5376772837    2.3270803037   -2.2039624261
     H     1.6705266438    2.5771685394   -1.1460723528
     H     1.5891886218    1.2353114838   -2.2905503201
     H     0.5246467936    2.6404567037   -2.4982302506
