34
-1.0411133833320121e+03 frame 218   xyz file generated by TeraChem
    Fe     0.2262341310   -0.1641819302    0.3916519911
     O    -2.6169980282    3.8335307673    0.9122391847
     C    -3.2038273077    2.6037420956    1.0634156243
     C    -4.4592223225    2.7602111360    1.5732119192
     C    -4.6642635618    4.1706563352    1.7501779340
     C    -3.5148977276    4.7692825458    1.3331660040
     H    -2.6032337964    1.7374311424    0.7635915783
     H    -5.1547513673    1.9629932341    1.7978321812
     H    -3.1861569897    5.7963669345    1.2730858219
     H    -5.5454313973    4.6673475734    2.1352102558
     O     4.1831968578    0.3518082581   -0.2847595190
     C     4.1181841540    0.5352600544    1.0725849416
     C     5.3717535729    0.7626911795    1.5578173824
     C     6.2678515511    0.7161544891    0.4355587282
     C     5.4910335354    0.4627960587   -0.6526454462
     H     3.1143697178    0.4641976136    1.5028513726
     H     5.6296269743    0.9392452732    2.5934329242
     H     5.6944741143    0.3355044592   -1.7053486064
     H     7.3415938399    0.8512876154    0.4415338668
     O     1.4331090674   -4.7860446301   -1.0612761459
     C     1.6272711842   -5.9503046740   -1.7429191677
     C     1.7238055954   -5.7085488654   -3.0792699957
     C     1.5782521809   -4.2879892201   -3.2322571705
     C     1.4042989673   -3.7709213275   -1.9819428104
     H     1.6709043398   -6.8456350340   -1.1403096898
     H     1.8780962119   -6.4452551100   -3.8570710495
     H     1.2589475336   -2.7571962752   -1.5930190964
     H     1.5981646447   -3.7218927843   -4.1536816576
     O    -1.6269069367    0.1410979521    0.1554691025
     H    -1.8099325151    0.1757905651   -0.7969988213
     O     1.1965815565    0.2848463664    1.9549464827
     H     0.9267287239    1.1513341568    2.2952267605
     O     1.1108781707   -0.8414189752   -1.1344370006
     H     2.0452310868   -0.5792154784   -1.1366503709
