21
-6.9228184595858318e+02 frame 474   xyz file generated by TeraChem
    Fe    26.0071813601    2.6724448533   31.4790037231
     O    24.9832889216    3.8661607872   30.4376350095
     H    24.2670698155    4.1811322112   31.0115003380
     O    27.8453580068    2.9842811123   31.2168188138
     H    28.2187335658    2.1172653540   30.9892924204
     O    25.6646448289    0.9615804453   30.7660514434
     H    25.2297482326    1.1151807093   29.9121044878
     C   -31.5771409439    0.7301492139    1.5238682811
     N   -32.3765572307    1.5439524293    1.8811612364
     C   -30.1160618777    0.4446512730    1.3396870049
     H   -29.4641531514    1.2956441703    1.6328390328
     H   -29.9013783580    0.2028124763    0.2913281289
     H   -29.8183436424   -0.4268846731    1.9358372174
     O    25.6616094104    2.9020972285   33.3088945829
     H    26.5063381080    3.1628608045   33.7092777722
     C     0.3700048265   -3.1304765470  -36.0386518444
     N     0.6863508575   -3.5606715002  -37.1091212154
     C     0.8006140720   -2.9980040457  -34.6057449393
     H     1.7889192069   -3.4634205702  -34.4019638849
     H     0.0651272217   -3.4659940470  -33.9396015573
     H     0.8620540086   -1.9404499356  -34.3203510080
