41
-9.0982186674803620e+02 frame 38   xyz file generated by TeraChem
    Mn    -0.0747530258    0.0034087555    0.1292455014
     O     0.0909096626    2.3849577486    0.1491312140
     C     1.3285504497    2.9968482034   -0.2219561109
     C    -1.0236167183    3.0018013035   -0.5150139818
     H    -1.9279151843    2.5021587291   -0.1671209200
     H    -0.9299920328    2.8769344064   -1.6004352949
     H    -1.0573856167    4.0694740699   -0.2630097763
     H     2.1075053483    2.5160258090    0.3687682377
     H     1.2986349168    4.0711558710    0.0022411265
     H     1.5288866952    2.8431060541   -1.2891429723
     O     2.4903582117    0.0040148264    0.6295945891
     C     3.4947505515    0.0081971554   -0.3886290040
     C     3.0549299877    0.0016316096    1.9378695715
     H     2.2219784461   -0.0062731487    2.6384431833
     H     3.6731649450    0.8972836884    2.0962542613
     H     3.6830818957   -0.8884472638    2.0884904994
     H     2.9729535987    0.0100625506   -1.3441332442
     H     4.1281671598   -0.8854564608   -0.3018518346
     H     4.1258231239    0.9030452175   -0.2969037598
     O     0.0986925250   -2.3826905250    0.1457948553
     C    -1.0163082155   -2.9980274576   -0.5188311751
     C     1.3369837288   -2.9846381399   -0.2393175087
     H     2.1166833760   -2.5098052015    0.3552555658
     H     1.5323052429   -2.8149255213   -1.3049468656
     H     1.3117440443   -4.0621156267   -0.0301694916
     H    -1.9213747534   -2.5071718187   -0.1606830192
     H    -1.0429999420   -4.0686642738   -0.2786667587
     H    -0.9295526106   -2.8606937301   -1.6033384111
     C    -2.1900598167   -0.0014938806    0.4864312883
     N    -3.3174465491   -0.0068798896    0.8025894326
     O    -0.0435525570   -0.0118572238    2.5113917240
     C    -0.5874477209    1.1699638250    3.1199841612
     C    -0.5782785618   -1.1999388379    3.1158546006
     H    -0.1395566791   -2.0467040735    2.5877005710
     H    -1.6669613992   -1.2202292388    2.9982272712
     H    -0.3090499961   -1.2280067729    4.1794756996
     H    -0.1634457326    2.0226732816    2.5889150621
     H    -0.3103852004    1.2011737002    4.1815281371
     H    -1.6770922986    1.1778796348    3.0105199306
     C     0.5697322447    0.0024133034   -1.9016009790
     N     0.9617308929    0.0016503827   -3.0046718702
