15
-8.2594554897175180e+02 frame 154   xyz file generated by TeraChem
    Mn     0.5363486457   -0.2018823462    1.1648809327
     O    -0.3326200396    0.6720057681   -0.9938039175
     H    -1.1171247481    0.6323193234   -0.4186893204
     O     2.2448933154   -0.4557155801    0.3188676868
     H     2.0238548559   -0.3499084286   -0.6231561059
     O     0.1895645492   -2.0610566884    0.9782013842
     H     0.9434148406   -2.3060639532    0.4166486615
     O    -1.1691356402    0.1115616451    1.8906505778
     H    -1.0297278621    0.9884071041    2.2862085657
     O     1.2558242737    1.3628723761    1.9717706357
     H     2.0697898195    1.3615044733    1.4378530507
     P    -1.0649556798    0.4036210953   -2.8528301546
     H    -0.5658727548   -0.9287335126   -2.8314184697
     H    -1.2660105995    0.1218853060   -4.4591736898
     H     0.1243727025    1.0757323693   -3.2571235615
