43
-1.0167245331820011e+03 frame 166   xyz file generated by TeraChem
    Mn    -0.3267134361   -0.3461330738   -1.4968602390
     C    -0.6743946014    4.7612372620   -0.6458834170
     C     0.5851035326    4.1996025320   -0.8523682187
     C     0.6766190602    2.8258413920   -1.0819945888
     N    -0.3968020185    2.0241706443   -1.1085509949
     C    -1.6090242810    2.5628724610   -0.9001617325
     C    -1.7928365833    3.9264105557   -0.6682636935
     H    -0.7824047685    5.8290787895   -0.4650074997
     H     1.4893384686    4.8008765648   -0.8309849274
     H     1.6393895458    2.3482034496   -1.2322431440
     H    -2.4130758761    1.8248737355   -0.9109273778
     H    -2.7930227780    4.3202112594   -0.5052670015
     C     6.2366933739    0.8547472954    0.8356680179
     C     4.9781764755    0.2792952910    0.6802040948
     C     3.9406339535    1.0337399486    0.1176078401
     N     4.1139668796    2.3074207369   -0.2832316067
     C     5.3293551465    2.8485713469   -0.1294331381
     C     6.4203588317    2.1749220020    0.4202218236
     H     7.0602900937    0.2902769431    1.2687848982
     H     4.7810647655   -0.7452965001    0.9837795239
     H     2.9432226212    0.5774404814   -0.0142169098
     H     5.4390844005    3.8805476822   -0.4657281322
     H     7.3822958357    2.6724996465    0.5169412984
     C    -2.6255289404   -4.9350258439    0.2098139970
     C    -1.7284353693   -3.8755056675    0.0883735537
     C    -0.4190966574   -4.0652264368    0.5436810010
     N     0.0250615910   -5.2075835832    1.0927382268
     C    -0.8552940491   -6.2123202458    1.1982028174
     C    -2.1824169264   -6.1323380794    0.7758543676
     H    -3.6536110515   -4.8311656051   -0.1314415212
     H    -2.0055674447   -2.9097235418   -0.3398813617
     H     0.2936880316   -3.2462313371    0.4518233905
     H    -0.4777757920   -7.1329660979    1.6457318039
     H    -2.8461046186   -6.9864730925    0.8896847854
     N    -2.2944499474   -0.5549596660   -0.9022186829
     H    -2.9763535511   -1.0257366682   -1.4992743213
     H    -2.5767562549   -0.7622773826    0.0575470651
     N     1.2347076900   -0.7192349376   -0.1659340232
     H     0.9590843135   -0.8514986519    0.8117350857
     H     1.7693233296   -1.5619713897   -0.3954235279
     N     0.0770014119   -0.6207477893   -3.4653040404
     H    -0.6950853041   -0.9498600964   -4.0499294004
     H     0.8669802662   -1.2237519479   -3.7058341774
