28
-6.5247777202698205e+02 frame 107   xyz file generated by TeraChem
    Cr    -0.1742150757    0.1925913469    0.0334619159
     C     0.1946027916    3.5981434781    0.3857599245
     N     0.1528106313    2.4466615568    0.4780737647
     C     0.2398760981    5.0480400211    0.2322191474
     H     0.0826816343    5.3113615506   -0.8186258251
     H     1.2126228454    5.4346581996    0.5514034893
     H    -0.5426222873    5.5183795193    0.8356232342
     C     3.3534989668   -0.1391534890   -0.2610204774
     N     2.2761920270    0.1933944631   -0.0020183106
     C     4.7003798323   -0.5889215387   -0.5979420992
     H     5.3592973880    0.2672942650   -0.7714538852
     H     4.6697513687   -1.2004014714   -1.5052587525
     H     5.1108263763   -1.1929451755    0.2171749523
     N    -0.1473443324   -1.7361397716   -0.1246667249
     H    -0.7992230056   -2.1725498287    0.5338027101
     H    -0.4772520242   -2.0219159445   -1.0493498765
     N    -2.0740378981    0.4646224141    0.3162903742
     H    -2.3838821461    1.3166022230   -0.1623609010
     H    -2.6160380755   -0.2867571874   -0.1185169560
     C     0.0915406915   -0.3958849712    3.4236865898
     N     0.1718469152   -0.1059307434    2.3076626236
     C    -0.0390176730   -0.7645751709    4.8290779480
     H     0.7139911823   -0.2471341380    5.4314599193
     H     0.0945130176   -1.8442529228    4.9485691136
     H    -1.0338279718   -0.4896671732    5.1935077173
     N    -0.1072307949    0.5996354660   -1.8659113902
     H    -1.0032293583    0.3998558906   -2.3178781009
     H     0.5590889229   -0.0277726945   -2.3279220785
