19
-1.7632388928338009e+03 frame 90   xyz file generated by TeraChem
    Cr     0.0102043500    0.0205840106    0.3708135333
     C     0.4462000143    3.1812862175    0.6740973138
     O     0.2093925660    1.9669582830    1.0080531864
     O     0.5871795666    3.3534028955   -0.6720429044
     H     0.4904366975    2.4707264929   -1.1266923257
     C     2.9730741846   -0.8816033851    0.7091910741
     O     1.9999629713   -0.0577106195    0.6964949491
     O     2.6687968921   -2.1688852450    0.3873444458
     H     1.6874750450   -2.2262953438    0.1890829477
     C    -0.6931802886   -3.0491415944   -0.2517237818
     O     0.0108578794   -1.9979094298   -0.0466940154
     O    -2.0319294597   -2.7956911609   -0.3136562556
     H    -2.1827675514   -1.8174045897   -0.1900122002
    Cl    -2.5178081051    0.3843194403   -0.0020919880
     C    -0.3366235088   -0.1068727577    3.4700008741
     O    -0.3293479953   -0.5514874609    2.2754146371
     O    -0.0374592041    1.2161402837    3.6105101862
     H     0.1115200281    1.6065242806    2.7009463730
    Cl     0.4256811806    0.4773624498   -2.1346123799
