15
-1.2937087990065909e+03 frame 98   xyz file generated by TeraChem
    Fe     0.5176873613   -1.5165611277    0.4623397593
     C     0.8070283232   -0.5358471018   -1.3887389560
     N     0.9644620684   -0.0114089905   -2.4241524179
     C     2.2401647400   -1.1957465756    1.5904778901
     N     3.2069983886   -1.0395440328    2.2350577698
     C     0.1182991116   -3.5357704911    0.1518771557
     N    -0.0781927651   -4.6782118412   -0.0241177794
     S    -4.8813866024    1.0718475393    2.9562046143
     H    -3.6475761033    0.5471910573    2.5550228841
     H    -5.4384047411    0.8794404382    1.7412258901
     C    -1.1721400612   -0.6525187784    1.3885506982
     N    -2.1019933757   -0.1631459728    1.9058973310
     S     1.8721327080    1.0770127262   -5.3102519793
     H     1.4225486557    0.6455887815   -4.0565716071
     H     2.9462243713    0.2591306801   -5.2835534277
