21
-5.5575681532085071e+02 frame 38   xyz file generated by TeraChem
    Mn     0.1470867252    0.0002588710    0.1291532467
     N    -0.0891028020    2.0402395139    0.3944375383
     H    -1.0775462631    2.2909330052    0.5454917292
     H     0.4252619957    2.4234599919    1.2014443304
     H     0.2068866904    2.5994713740   -0.4192688328
     N     2.2752133399    0.2570357515   -0.2495498128
     H     2.5320535590    1.2242677889   -0.4870665019
     H     2.8703619324    0.0218836846    0.5580222762
     H     2.6414184622   -0.3054428797   -1.0300484515
     N     0.4086410654   -2.0400330088   -0.1071940217
     H     1.2177595987   -2.4238916861    0.4033900966
     H    -0.4042852358   -2.5981826069    0.1929508787
     H     0.5547748656   -2.2916269770   -1.0961625390
     C    -2.3212333707   -0.3484089977   -0.1785546961
     O    -3.4215474300   -0.5112922110   -0.3417781091
     N    -0.2278233100   -0.2569201216    2.2559226809
     H    -1.0099026675    0.3033628216    2.6221379677
     H    -0.4624488579   -1.2248623113    2.5126915364
     H     0.5795027269   -0.0193219363    2.8504607644
     C    -0.1693948385    0.3486673629   -2.3303700470
     O    -0.3319732620    0.5105984734   -3.4308695483
