43
-1.7896702403120348e+03 frame 72   xyz file generated by TeraChem
    Cr    -0.0248536493   -0.0063842922   -0.0187577675
     C     1.2725479059    4.1030304322    0.3677551404
     C     1.4798265936    2.7782285442    0.1109682176
     N     0.2872318022    2.0806361789    0.2721274657
     C    -0.6231294901    2.9903536462    0.6233227871
     N    -0.0632587259    4.2131247044    0.6923884207
     H    -0.5462089361    5.0682061260    0.9401774681
     H     1.9357041771    4.9540671409    0.3488186553
     H     2.3945468788    2.2877402517   -0.1782187824
     H    -1.6639683938    2.7988877355    0.8309096318
     C     4.2200467045   -0.5331606508   -0.4985287038
     C     2.9654200596   -0.2775416302   -0.9781083858
     N     2.0571438245   -0.3162347359    0.0742359229
     C     2.7619572881   -0.5915833529    1.1705488530
     N     4.0668143503   -0.7274765031    0.8583936963
     H     4.8082093980   -0.9396089129    1.5153687369
     H     5.1805754005   -0.5920766304   -0.9870835241
     H     2.6454855756   -0.0711047689   -1.9887259031
     H     2.3680218751   -0.6914868168    2.1723277757
     C     0.0214839453   -4.2415707101   -0.8557453236
     C     0.5847850711   -2.9977611288   -0.8373252472
     N    -0.3262790634   -2.0834820382   -0.3207240540
     C    -1.4250468894   -2.7820060437   -0.0325892650
     N    -1.2475539142   -4.0814739826   -0.3398476404
     H    -1.9327328807   -4.8158912334   -0.2093222105
     H     0.3974683428   -5.1994038506   -1.1807035519
     H     1.5710404026   -2.6995105244   -1.1545028587
     H    -2.3370077261   -2.3882259755    0.3882006485
     C    -4.2623745607    0.5597358159    0.5649714109
     C    -2.9882377702    0.3544640163    1.0185209863
     N    -2.1195628219    0.3009827546   -0.0671452117
     C    -2.8675126636    0.4726731413   -1.1566274769
     N    -4.1611784925    0.6311747017   -0.8086988053
     H    -4.9281867416    0.7799590418   -1.4539331961
     H    -5.2047813761    0.6579576371    1.0819446143
     H    -2.6323733254    0.2410540364    2.0324102996
     H    -2.5102425370    0.4870349180   -2.1770008742
     S    -0.0999128787   -0.2366888119    3.6023616819
     H     0.0812791387    0.7263754937    4.5278214268
     H    -0.3661434691   -1.1987203910    4.5082344107
     S     0.0340279604    0.2807615652   -3.5033338063
     H     0.0655026767   -0.6476912668   -4.4797888213
     H     0.3224244465    1.3088010366   -4.3258326734
