17
-2.3359856904969406e+03 frame 7   xyz file generated by TeraChem
    Co     0.0001700520   -0.0001289019   -0.0004630775
     S    -0.0004683579    2.8525635004   -0.0002726970
     C    -0.0088503623    4.5167486920    0.0035570036
     N    -0.0145163885    5.6956131097    0.0062304210
     S     2.8527854399    0.0008454714   -0.0003061094
     C     4.5169765508    0.0080944154    0.0005873700
     N     5.6958443211    0.0129845329    0.0011753119
     S     0.0008128213   -2.8527297046    0.0001225289
     C     0.0081954445   -4.5169220141    0.0012152263
     N     0.0131521302   -5.6957891441    0.0020287882
     S    -2.8525068518   -0.0009812992   -0.0000849943
     C    -4.5167104683   -0.0063093741   -0.0006225924
     N    -5.6955858090   -0.0098464535   -0.0010064800
     C     0.0000933067   -0.0002852190    1.9205347013
     O     0.0000971853   -0.0002699310    3.0594478184
     C     0.0002407220   -0.0000449774   -1.9212790379
     O     0.0002282739   -0.0001023004   -3.0601988823
