46
-1.0376456443337975e+03 frame 63   xyz file generated by TeraChem
    Fe    -0.1035576406    0.0898068695   -0.0875962147
     N    -0.4444361053    2.2941912339   -0.5002268568
     H    -1.4422170098    2.4501068779   -0.6516668215
     H    -0.1915412968    2.9014301164    0.2810458128
     H     0.0272521367    2.6686898283   -1.3257928670
     N     2.1628398968    0.4127118252   -0.3316308843
     H     2.3944701282    1.4069609974   -0.3510247109
     H     2.7069854526    0.0210526466    0.4391282174
     H     2.5671622927    0.0313758013   -1.1879646105
     N     0.2687317900   -2.1023094870    0.3499499969
     H     0.9862218840   -2.2967760162    1.0502862790
     H    -0.5879719256   -2.5426495186    0.6886396799
     H     0.5322513669   -2.6246372166   -0.4869537881
     C    -5.0658095817   -0.6337811050    0.5652085300
     C    -4.3393398202   -1.4327415482   -0.3192710634
     C    -2.9770012264   -1.1961505439   -0.4711914595
     N    -2.3145122372   -0.2305051117    0.2030369672
     C    -3.0289836627    0.5325527731    1.0588684820
     C    -4.3948716202    0.3693738117    1.2662108212
     H    -6.1311349961   -0.7897636540    0.7051829839
     H    -4.8174866643   -2.2252751272   -0.8853089257
     H    -2.3865912659   -1.7898192218   -1.1629222181
     H    -2.4740529660    1.2913966847    1.6019816988
     H    -4.9170429098    1.0146791623    1.9647957583
     C     0.6553409104    0.9094992112    4.8906395647
     C     1.2555214172    1.7282801370    3.9330110390
     C     1.0064337009    1.4762011859    2.5881086587
     N     0.2053519300    0.4807493552    2.1520822982
     C    -0.3727531817   -0.2987467332    3.0908658403
     C    -0.1751492354   -0.1243764061    4.4570512227
     H     0.8299657925    1.0745365023    5.9493700634
     H     1.9077499749    2.5468590263    4.2188043383
     H     1.4686688718    2.0964259327    1.8252926502
     H    -1.0279881880   -1.0847490830    2.7290457186
     H    -0.6663707510   -0.7864269812    5.1624097421
     C    -0.4286109953   -0.6827701079   -5.1125355689
     C     0.5946572952   -1.2705562954   -4.3673260822
     C     0.6412192541   -1.0374890823   -2.9970790739
     N    -0.2576147158   -0.2734882839   -2.3408113998
     C    -1.2463620644    0.2808593277   -3.0735049554
     C    -1.3668585330    0.1083990281   -4.4489283875
     H    -0.4936776869   -0.8394553915   -6.1848458039
     H     1.3465065008   -1.8968741087   -4.8359313405
     H     1.4309502996   -1.4825135883   -2.3973111935
     H    -1.9734481516    0.8760452648   -2.5302012908
     H    -2.1824569311    0.5841671996   -4.9833229453
