19
-5.4233812047771744e+02 frame 138   xyz file generated by TeraChem
    Co    -0.3321917086   -0.6184963432    0.7556513264
     N     0.1204018759    1.3336478167   -0.0465585385
     H     0.1313036713    1.2859587760   -1.0623694582
     H    -0.5014273134    2.0805182288    0.2510268933
     H     1.0754323936    1.5022331558    0.2984491899
     N     2.6403270913    0.6342092991    1.2977209509
     H     3.5743029794    0.5229104321    1.6950535636
     H     1.9580890600    0.4341466622    2.0463695017
     H     2.4782615580   -0.1603680721    0.6587897353
     N    -0.9092138630   -1.4850320818   -2.4878430181
     H    -0.8217920539   -0.5822041017   -2.9625020193
     H    -1.5879675072   -1.3111764944   -1.7308158589
     H    -0.0357876530   -1.5779787392   -1.9476074130
     O    -2.1684924841   -0.8812179398    0.2297233318
     H    -2.4506777171   -1.7754005968    0.4799512600
     O     0.1077590689   -0.2723076221    2.6094304037
     H     0.2169971810   -1.1219597221    3.0662653493
     O     1.1602043419   -1.4296783464   -0.2515527991
     H     1.2771844822   -2.3589544393    0.0026405128
