43
-1.0689451003779498e+03 frame 58   xyz file generated by TeraChem
    Cr    -0.0539609743   -0.0009136823   -0.0820828693
     H     0.5101995514    5.0769047139    0.6383520331
     H    -1.1076558307    5.0527592527   -0.1323573041
     C    -0.4883767222    4.6331945756    0.6645845659
     N    -0.3698381392    3.2165416120    0.4601344011
     C    -0.2710057493    2.0758452947    0.2837500162
     H    -0.9535213486    4.8119730657    1.6373149154
     H     4.9633763971    1.1608233397    0.3918575072
     H     5.0779795907   -0.0885464982   -0.8867417652
     C     4.5730453923    0.8289431095   -0.5736470341
     N     3.1686413804    0.5615846358   -0.4362424427
     C     2.0345567727    0.3523341669   -0.3220141234
     H     4.7109638003    1.6110197860   -1.3246043030
     H     1.2707603701   -4.9838290297    0.2110951944
     H    -0.3287508583   -5.1280411700   -0.5852918286
     C     0.6459972831   -4.6343184585   -0.6148467673
     N     0.4501510022   -3.2180769322   -0.4778014773
     C     0.2829820918   -2.0779795333   -0.3578774160
     H     1.1397256549   -4.8324345033   -1.5695638727
     C    -4.1232400243   -1.1674192230   -0.0826133262
     C    -2.8638335732   -1.1358782709   -0.6070939595
     N    -2.0558135498   -0.3390181426    0.2024151669
     C    -2.8351203567    0.0960695643    1.2031679454
     N    -4.0777053161   -0.3850482186    1.0526666771
     H    -4.8596586595   -0.1991087548    1.6741286820
     H    -5.0258100184   -1.6626318813   -0.4095799115
     H    -2.4909501709   -1.6102235447   -1.5005642752
     H    -2.5343867411    0.7371399668    2.0176636968
     H     0.5115090857   -1.7491128716    4.7593894571
     H     1.9340504068   -0.6640721389    4.6478800797
     C     0.8546920795   -0.7453557749    4.4958347484
     N     0.5640769027   -0.5052075670    3.1100891577
     C     0.3348011388   -0.3177579931    1.9897041793
     H     0.3340498947    0.0015156641    5.1006512100
     C    -1.2300997084    1.1062010518   -3.9987429288
     C    -1.3743180720    1.0951369448   -2.6417776548
     N    -0.3634116855    0.3138020339   -2.0851514590
     C     0.3768718705   -0.1332476774   -3.1101862767
     N    -0.1236198576    0.3267266456   -4.2660814800
     H     0.2503092790    0.1281873954   -5.1896552000
     H    -1.8036484460    1.5856261253   -4.7784678763
     H    -2.1298666384    1.5726253650   -2.0388182625
     H     1.2462169483   -0.7691741453   -3.0424379876
