23
-6.7399664231383429e+02 frame 131   xyz file generated by TeraChem
    Mn     0.0046759457    0.0507598678    0.0672858916
     C    -1.0644753699    1.9814131665   -1.4660173711
     O    -0.8147120791    1.8965166939   -0.1254263205
     H    -0.6561831322    2.9039296139   -1.9214247764
     H    -2.1454995559    1.9451287176   -1.7182905089
     C     2.4723462544   -0.4790126098    0.9570591546
     O     1.9456795089   -0.4556322852   -0.2988747569
     H     2.7351440575   -1.4985973366    1.3121141007
     H     3.3790594797    0.1463733050    1.0652553086
     C     0.4238472512   -2.8698163871   -0.9833200573
     O    -0.5168131622   -2.2087055321   -0.5754531317
     H     0.2540738298   -3.8878785791   -1.3809470487
     H     1.4417984468   -2.4472541853   -0.9633470245
     C    -2.7104244284    0.5874434371    1.6053836116
     O    -1.9901684468   -0.3804533720    1.4238747475
     H    -2.4729013242    1.5455529267    1.1139772297
     H    -3.5953778957    0.5020585212    2.2645502483
     N     1.4179204512    0.0339475184    1.9214100071
     H     1.6149231806    0.9883552218    2.2205936020
     H     1.3303106840   -0.5374208952    2.7608354721
     N    -0.4479242158    0.7807539831   -2.1367737497
     H    -1.0249553825    0.3945171765   -2.8822686890
     H     0.4667794117    0.9992948452   -2.5306916985
