21
-2.4466506299374432e+03 frame 666   xyz file generated by TeraChem
    Mn     0.3284858068    5.4616452543    3.6548713581
     S    -4.7111704392    7.5008080039    0.5569547440
     C    -5.8619466792    6.7555756585   -0.4155982979
     N    -6.6786422692    6.2630726446   -1.1077040618
     S     2.4823094622    5.8203522800    2.4102161779
     C     3.2229704988    7.0950757731    3.2385696147
     N     3.7800176733    7.9773553926    3.7740395199
     S     4.1382883685  -29.3819623153   -1.1441959710
     C     2.7508548593  -28.4404627980   -1.1463008207
     N     1.7731679101  -27.7787688267   -1.1481347027
     C    -2.1739775244    4.8583332227    2.4812886280
     O    -1.4778294607    5.9073544413    2.7392630929
     O    -3.3737468783    4.8774423296    1.9081300439
     H    -3.6406987387    5.7871526977    1.5859183309
     S     0.7065351812    5.9322062660    6.0878098136
     C    -0.4396038768    4.9279994284    6.8235422564
     N    -1.2063442558    4.2449835048    7.3902549758
     C    -1.6049109616    3.6048044168    2.8375433584
     O    -0.4339616778    3.5691786852    3.3714246346
     O    -2.2820428595    2.4396444822    2.6264585625
     H    -1.7020784589    1.7606992492    3.0129460994
