49
-1.3495182390423652e+03 frame 85   xyz file generated by TeraChem
    Fe     0.0087124312    0.0032473292    0.1618179072
     O    -0.0535666720    2.2434779307    0.1203430028
     C    -1.2252051358    2.9934096055   -0.0497555842
     C    -0.9388180714    4.1461789864   -0.6911326371
     C     0.4786904050    4.1476614929   -0.9543363471
     C     0.9825853756    2.9964439773   -0.4556406161
     H    -2.1206062960    2.5431121474    0.3460975096
     H    -1.6441785370    4.9254543332   -0.9454531966
     H     1.9712470014    2.5809359579   -0.3412276213
     H     1.0455286923    4.9317235521   -1.4381611088
     O     2.2648284011    0.0458299379    0.2499598601
     C     2.9921358244    0.6177919891    1.3011360951
     C     4.3076028065    0.6162025883    0.9955806828
     C     4.4427359244    0.0148658937   -0.3071657156
     C     3.2020199762   -0.3158851763   -0.7254714681
     H     2.4084214705    0.9396035917    2.1481339139
     H     5.1066118845    0.9905593910    1.6207680501
     H     2.8029978496   -0.7897539844   -1.6074196620
     H     5.3623688102   -0.1499060521   -0.8518489417
     O     0.0319660486   -2.1247444921   -0.0532552215
     C     1.1245924030   -2.9846817462    0.1604747995
     C     0.7550619409   -4.2531060414   -0.1109621380
     C    -0.6275366182   -4.2220241878   -0.5210846480
     C    -1.0338323166   -2.9371430690   -0.4762111518
     H     2.0327510408   -2.5045945104    0.4850165261
     H     1.3863394742   -5.1278907606   -0.0340146817
     H    -1.9574537165   -2.4194171903   -0.6761334156
     H    -1.2340429750   -5.0691535026   -0.8109038464
     O    -2.2331122492   -0.0327321784    0.1445271402
     C    -3.0695455414   -0.5021127330    1.1642153934
     C    -4.3214284705   -0.6623457541    0.6842897141
     C    -4.2981264342   -0.2838426214   -0.7062425814
     C    -3.0327979852    0.0872343289   -0.9999400697
     H    -2.5949999145   -0.6477833717    2.1209180005
     H    -5.1791424172   -1.0040704936    1.2472276575
     H    -2.5266443543    0.4556298187   -1.8768357178
     H    -5.1351991844   -0.2851788819   -1.3910425506
     O    -0.0249614813   -0.0138080237    2.3060302334
     C     0.1335089104   -1.1248445251    3.1558797964
     C     0.0389144612   -0.7203357872    4.4384508461
     C    -0.1888050771    0.7045410570    4.4292940586
     C    -0.2229199432    1.1026161339    3.1414597196
     H     0.3054376512   -2.0667295122    2.6609721266
     H     0.1222565885   -1.3548812003    5.3102363596
     H    -0.3608883643    2.0398551134    2.6287517326
     H    -0.3106111029    1.3442650051    5.2928107368
     O     0.1076555389    0.3269730100   -1.9330700779
     H     0.2190228479   -0.3252240500   -2.6466667946
     H     0.3942554561    1.2008333404   -2.2593784656
