31
-8.5112367020502984e+02 frame 30   xyz file generated by TeraChem
    Cr    -0.1978430975   -0.0007224512    0.0109176534
     F    -0.3461718978    1.8769311921    0.2737461119
     F     1.7059132705   -0.0006151240    0.0104941591
     F    -0.3462586639   -1.8784571407   -0.2513444702
     O    -2.3705335795   -0.0009442757    0.0148296204
     C    -3.1032778824    1.1865146799    0.2594838094
     C    -3.1034559902   -1.1884367532   -0.2301843233
     H    -2.3154670608   -1.9395111329   -0.3518344259
     H    -3.7194705256   -1.0842123606   -1.1381187708
     H    -3.7608400887   -1.4223485724    0.6231297603
     H    -2.3153780181    1.9379037875    0.3796511939
     H    -3.7186034436    1.0831695941    1.1680118479
     H    -3.7614526198    1.4197952534   -0.5934510612
     O    -0.2909588764   -0.1120960152    3.0081542521
     C     1.1249811612   -0.1145395843    3.1131009824
     C    -0.9303245595   -0.2375889548    4.2468411974
     H    -2.0095947784   -0.2251244708    4.0630180185
     H    -0.6778082753    0.5942749478    4.9304525652
     H    -0.6689306226   -1.1829776141    4.7579714467
     H     1.5215487277   -0.0483156666    2.0952686049
     H     1.4788411895   -1.0440369990    3.5931901966
     H     1.4734088648    0.7434107829    3.7141259056
     O    -0.2932667514    0.1075231979   -2.9777625584
     C     1.1220767803    0.1161002823   -3.0890602200
     C    -0.9395142916    0.2371513892   -4.2124005010
     H    -2.0177266482    0.2197194432   -4.0229155946
     H    -0.6875011015   -0.5901826745   -4.9016682964
     H    -0.6843168486    1.1862033646   -4.7198379007
     H     1.5230944343    0.0468377356   -2.0731529822
     H     1.4701924398    1.0493227622   -3.5661350683
     H     1.4712123037   -0.7375095404   -3.6958670387
