40
-1.3438863361608314e+03 frame 114   xyz file generated by TeraChem
    Cr     0.0504889999    0.0255470480   -0.0186651924
     C    -0.5928435131    2.5182043879    1.2589126216
     O    -0.2460024079    2.0183673815    0.1368028124
     O    -0.5347567516    3.8768151766    1.2244930832
     H    -0.1946836109    4.1195224196    0.3262714243
     C     3.0912126152   -0.3327689781    0.2399699679
     O     1.9653906273    0.2825252844    0.2555888257
     O     2.9891447320   -1.6742570069    0.0046448153
     H     2.0417230220   -1.9392354137   -0.1022518898
     C    -0.4285463249   -2.5026950418   -1.2717696718
     O     0.0813759191   -2.0019098513   -0.2030672749
     O    -0.2956317667   -3.8503284042   -1.2817231111
     H     0.1771631829   -4.1036040099   -0.4488491067
     O    -2.3561655806   -0.0447386214   -0.0441198227
     C    -3.1784619326    0.6862705402    0.7835754833
     C    -4.4740514975    0.3954838724    0.5029986006
     C    -4.4620915273   -0.5728688435   -0.5615635296
     C    -3.1595294443   -0.8098256334   -0.8597708897
     H    -2.6564377282    1.3474620803    1.4620823205
     H    -5.3393756112    0.8198290539    0.9936891235
     H    -2.6185724751   -1.4534019429   -1.5392644371
     H    -5.3163734981   -1.0319827794   -1.0402783606
     O    -0.0179170697   -0.5642576971    2.7363747027
     C     0.2476329525   -1.8220613060    3.1927064966
     C     0.2789342768   -1.8236443995    4.5529193375
     C     0.0158243688   -0.4702201548    4.9632461712
     C    -0.1544014691    0.2525581549    3.8227250514
     H     0.3939752853   -2.5633008925    2.4231386441
     H     0.4723574148   -2.6771523743    5.1889135526
     H    -0.3624972363    1.2818248280    3.5657134814
     H    -0.0322848443   -0.0901937705    5.9748841512
     O    -0.0027699759    0.5976633230   -2.7220620465
     C     0.1211232081    1.8984031674   -3.1189106025
     C     0.0613661476    1.9728575015   -4.4759617919
     C    -0.1131257804    0.6251553431   -4.9488030829
     C    -0.1466070308   -0.1687741383   -3.8446243504
     H     0.2323571894    2.6057090061   -2.3121260403
     H     0.1334208261    2.8728541669   -5.0717301525
     H    -0.2693324147   -1.2224492853   -3.6420269953
     H    -0.2006142422    0.2971419011   -5.9758812782
