13
-1.7141120278929466e+03 frame 62   xyz file generated by TeraChem
    Mn    -0.3547117039   -0.3604129148    0.0398664306
    Cl    -0.7615289761    2.2488244281    0.6013780791
    Cl     2.1045650095   -0.6442942861    0.5093110022
    Cl    -0.8924080286   -2.4860650398   -1.0980276672
     O    -2.5938057248   -0.1595115782   -0.1793629411
     H    -2.6498038554   -0.8731625673   -0.8494958065
     H    -2.7004663880    0.6954858811   -0.6305320128
     O    -0.4385223169   -0.4162515487    2.3557460804
     H    -0.5680994279    0.5556193847    2.3568788199
     H     0.5358291777   -0.5197481991    2.3788833932
     O     0.4608701087    0.8013812727   -1.7935674656
     H     1.3579357850    0.4476703697   -1.6288410729
     H     0.4329605695    1.6391588453   -1.2814979293
