15
-1.5214254992150504e+03 frame 162   xyz file generated by TeraChem
    Cr     0.2760515481   -0.3999851157   -0.0423257062
     C     0.0275066674    1.7169929596    0.0552471065
     O    -0.0666549091    2.8389299199    0.1044801783
     C     2.2693487625    0.0452004148   -0.3649720695
     O     3.3617627886    0.2768654235   -0.5416339753
     C     0.6222660122   -2.4480568726   -0.1331589580
     O     0.8008690861   -3.5632977114   -0.1792369356
     C    -1.7650156288   -0.6343766672    0.2864027418
     O    -2.8686046390   -0.7958222813    0.4657735704
     S     0.6632255179   -0.8063249636    2.2786249308
     C    -0.1231011786    0.5701444801    2.8553487709
     N    -0.6862682543    1.5327374377    3.2128272122
     S    -0.0919612330   -0.7423777014   -2.3752739753
     C    -0.9204881702    0.7015834868   -2.6479916911
     N    -1.4993362860    1.7088249270   -2.7969294804
