13
-2.1564083017309445e+03 frame 202   xyz file generated by TeraChem
    Cr    -0.4045299960    1.9933114627    0.5062884231
    Cl    -0.8004716235    4.3378209186    0.8776820092
    Cl     1.9730210536    2.3420123269    0.8821562998
    Cl     0.0038373700   -0.4074181798    0.1230826762
    Cl    -2.7761702032    1.6173821415    0.1270987117
     C     3.3303161613   -0.6828832301    0.7917082655
     O     4.3610468018   -1.3119403013    0.9605812593
     H     2.6088157748   -0.4750860536    1.5991255431
     H     3.0295847188   -0.2691842085   -0.1861152978
     C    -2.8311047124   -1.4437300893   -1.3055813123
     O    -3.4045043763   -2.3764323131   -1.8419773716
     H    -2.7988804885   -1.2944632946   -0.2141182445
     H    -2.2941787807   -0.6635806965   -1.8734719320
