17
-5.9538723797735179e+02 frame 79   xyz file generated by TeraChem
    Mn    -0.0375002569   -0.0960435062    0.0047958574
     O     0.1736407390    2.2977251044    0.0654358065
     H     0.2334883948    2.3445790100   -0.9112298685
     H    -0.6863634667    2.6870960106    0.2938971974
     O     2.2044452820    0.3251291579    0.2097968436
     H     2.4072230156    0.4189371821   -0.7415016817
     H     2.1653088132    1.2433972097    0.5335822717
     O     0.1168443992   -2.3576567175   -0.2369331585
     H     0.4547688279   -2.5586239966   -1.1268064721
     H    -0.8380025891   -2.5502614119   -0.2739551593
     C    -2.1080728166   -0.3838665280    0.5052621456
     N    -3.0654507688   -0.7783646504    1.0535078194
     O     0.1300346705   -0.3442087856    2.2754435615
     H    -0.8202618107   -0.4862387673    2.4553302216
     H     0.5759856893   -1.1692816332    2.5284823242
     C     0.4550442553    0.3517761926   -2.0940230660
     N     0.9606868706    1.1140441346   -2.8297464283
