9
-1.3584939401103786e+03 frame 174   xyz file generated by TeraChem
    Cr    18.9176513182   -2.7539655750   18.6645442863
     F    19.1299004688   -1.1512256965   17.8420845358
     F    20.6480994566   -3.0592843765   18.9320291241
     F    18.1216536774   -4.3527121750   18.3430614958
     C   -20.8850734785    2.6734376940  -19.9107991876
     S   -22.2285220778    2.3067124128  -19.0335065035
     F    18.1271271210   -2.4653523675   20.2341074844
     C   -19.8618000489    2.9508507175  -20.5799842187
     S   -18.5191886063    3.3181097815  -21.4582532601
