25
-2.3266462765026367e+03 frame 108   xyz file generated by TeraChem
    Mn     0.1294556939   -0.1366307704   -0.2473399883
     S     0.6347503688    2.5456091461    0.2370627422
     H    -0.2181536083    3.1936455427   -0.5830749796
     H     0.0051367639    2.9173832728    1.3715889952
     S     2.8533264699   -0.4951838806   -0.7025989922
     H     3.4340778510   -1.0993522194    0.3543341843
     H     3.4308880955    0.7039324437   -0.4762020863
     S    -0.3835742091   -2.8633207768   -0.4971802037
     H    -0.3045002474   -3.1112594392   -1.8208569974
     H     0.7230936932   -3.5715899671   -0.1884950581
     S    -2.5809037690    0.2669860869    0.2685961607
     H    -3.1773932883   -0.9442175525    0.2662685521
     H    -2.7432358942    0.4665131784    1.5935875742
     S     0.3640658933   -0.4653863223    2.5019021458
     H    -0.2286712766   -1.6367105416    2.8160440303
     H     1.6033627967   -0.8767782278    2.8418698052
     C    -1.0330487910    1.0582627319   -4.2553963275
     C    -1.1893784353    1.0161614759   -2.8995967178
     N    -0.1752007398    0.2409940917   -2.3394228450
     C     0.5783272781   -0.1720720471   -3.3660426798
     N     0.0875688448    0.3022024897   -4.5237293619
     H     0.4825915644    0.1329816137   -5.4429289322
     H    -1.6049837158    1.5436530122   -5.0318408540
     H    -1.9621854495    1.4757461841   -2.3027740633
     H     1.4613207431   -0.7908708627   -3.3041581962
