31
-9.5442230030242888e+02 frame 166   xyz file generated by TeraChem
    Cr     0.1750012418   -0.3573181974   -0.1806212445
     C     0.4608456703    1.6882721214    0.1030731968
     N     0.5317029101    2.8566096030    0.1592689688
     C     2.1322807253   -0.6048447776   -0.5866091256
     N     3.2545344565   -0.7285150864   -0.8927131820
     C    -0.1805177204   -2.3838175244   -0.5180514468
     N    -0.5073735008   -3.4827038142   -0.7606513728
     C    -4.7465014987    0.2809033437    0.7941079871
     C    -3.9248128746    1.3729333157    0.5232963106
     C    -2.5827294266    1.1511849810    0.2223637756
     N    -2.0439018981   -0.0813364329    0.1738501804
     C    -2.8395108450   -1.1348966930    0.4370488566
     C    -4.1898622105   -0.9953566240    0.7498967474
     H    -5.7964477285    0.4218003571    1.0390316316
     H    -4.3043289375    2.3897059591    0.5521481345
     H    -1.9042412955    1.9759477474    0.0340144689
     H    -2.3676150550   -2.1099596882    0.3863897095
     H    -4.7826683589   -1.8804999190    0.9587390604
     C     0.3925042552   -0.6924756348    1.7934679561
     N     0.4479029159   -0.8810634751    2.9466405241
     C    -0.4282572786    0.4795544550   -5.1306219381
     C     0.1331410765    1.4515243665   -4.3056358887
     C     0.2461189208    1.1982884221   -2.9403934926
     N    -0.1678742889    0.0461625942   -2.3800920324
     C    -0.7032280407   -0.8942217688   -3.1807508290
     C    -0.8543824976   -0.7150048760   -4.5538966311
     H    -0.5269698332    0.6471810078   -6.2003792540
     H     0.4879812418    2.3973382219   -4.7030436899
     H     0.6696083918    1.9293597070   -2.2613507434
     H    -0.9942510551   -1.8203026787   -2.6973850401
     H    -1.2902743867   -1.5100305210   -5.1510129322
