29
-1.7821614496058851e+03 frame 106   xyz file generated by TeraChem
    Co     0.0073654907   -0.0058673834    0.0031159866
     P    -0.4059876902    2.6638755089    0.3837793990
     H    -1.6767529119    3.0278420353    0.8720128241
     H     0.4474930353    3.2876865648    1.3153560820
     H    -0.2711328621    3.4864351446   -0.7514775960
     P     2.6905512650    0.3814926230    0.4267472090
     H     3.2091638539    1.6016198956   -0.0494640059
     H     3.1072399548    0.3635986276    1.7720350513
     H     3.5395738310   -0.5644921483   -0.1802939316
     P     0.3619867214   -2.6766392131   -0.3617856215
     H     1.6948171991   -3.1310510280   -0.4162608589
     H    -0.1948189817   -3.5125393412    0.6258043393
     H    -0.1753984302   -3.2072174228   -1.5509047381
     P    -2.6905983774   -0.3310951533   -0.4276662122
     H    -3.1610413417   -1.6591464966   -0.4465668011
     H    -3.5227104083    0.2710279344    0.5358454442
     H    -3.1790509787    0.1892476382   -1.6421352918
     C    -0.5167948188   -0.4791271645    3.1339379473
     N    -0.3368798682   -0.3052122725    1.9972473932
     C    -0.7379593749   -0.6958022511    4.5514249530
     H     0.2224968019   -0.6877333120    5.0827284601
     H    -1.2243277825   -1.6665881963    4.7099449477
     H    -1.3773069851    0.0983151686    4.9568912476
     C     0.5540403909    0.4509723124   -3.1252633676
     N     0.3614911207    0.2885043845   -1.9888874100
     C     0.7915640882    0.6537309406   -4.5420685060
     H    -0.1605253653    0.6194044838   -5.0872146611
     H     1.4524724391   -0.1327779993   -4.9274648677
     H     1.2611154078    1.6318209766   -4.7063270687
