45
-9.7216380171580568e+02 frame 91   xyz file generated by TeraChem
    Fe    -0.0156088848    0.0355265584    0.0483889649
     O    -0.0499906976    2.2200146765    0.0294967451
     C     0.7556391228    3.0292513048   -0.8545897070
     C    -0.9486434877    3.0231443208    0.8252934197
     H    -1.5871983659    2.3369399528    1.3802662437
     H    -1.5660407857    3.6505026848    0.1742700520
     H    -0.3774429851    3.6565312886    1.5115147867
     H     1.5035076315    2.3730142741   -1.2984185652
     H     1.2556180142    3.8175379233   -0.2832991117
     H     0.1273536669    3.4787272370   -1.6305499329
     O     2.1011355247    0.0597435666    0.1635670441
     C     2.9622381590   -0.8962517902   -0.4972425634
     C     2.7953023875    0.7888192549    1.2065107665
     H     2.1137226369    1.5539863470    1.5728284808
     H     3.6903402535    1.2550938501    0.7849797862
     H     3.0718185556    0.1052530846    2.0143356139
     H     2.3514820874   -1.4304926734   -1.2232836681
     H     3.3717865415   -1.5987502357    0.2346860942
     H     3.7782438605   -0.3654477511   -0.9966324253
     O     0.0337826321   -2.1531447835    0.0403589989
     C    -0.3586206287   -2.9875817570   -1.0724333096
     C     0.6350127928   -2.9293628450    1.1015381394
     H     0.9176027412   -2.2342268801    1.8907581656
     H     1.5185311830   -3.4533646534    0.7239226809
     H    -0.0865895293   -3.6593138406    1.4827787960
     H    -0.8091545234   -2.3376078392   -1.8210362876
     H    -1.0824763931   -3.7374703205   -0.7379403775
     H     0.5197595092   -3.4907868967   -1.4908669419
     O    -2.1337162657   -0.0140360911   -0.0891148831
     C    -2.8263655608    0.6884982665   -1.1511763463
     C    -2.9319269815   -1.0973678376    0.4478116415
     H    -2.3277769817   -1.6028061669    1.1987008641
     H    -3.1989888630   -1.7976212998   -0.3491066064
     H    -3.8397009930   -0.6852242922    0.8979901481
     H    -2.2264426281    1.5607785338   -1.4038364317
     H    -3.8083501674    1.0053262952   -0.7889526539
     H    -2.9360733599    0.0352529902   -2.0212660567
     C    -0.7473218594    0.1807294565    3.3013792306
     O    -0.0927635457    0.0259972332    2.2794040777
     H    -0.2675776822    0.1092477946    4.2882837197
     H    -1.8271819458    0.3930820897    3.2692498660
     C     0.6485197270    0.1858525479   -3.2608838092
     O     0.0443030363    0.0191141410   -2.2107738548
     H     0.1273334572    0.1063798838   -4.2262668191
     H     1.7249817093    0.4174772326   -3.2781773114
