19
-2.6180884875479542e+03 frame 89   xyz file generated by TeraChem
    Cr    -0.9833271053   -1.0485127246    1.3999004900
     S    -0.5608481532    3.5010821182    0.5430401205
     C    -0.2966851741    4.6900224012   -0.6107262118
     N    -0.1336579329    5.5625756523   -1.3884510771
     S     3.2799607252    0.0038182057   -0.5248539025
     C     4.0194273769   -0.0982153051   -2.0269952417
     N     4.5849088137   -0.1691778250   -3.0604917810
     S     0.1217516819   -3.2305345529    0.9750172169
     C    -0.3593076080   -3.7125336244   -0.5747300047
     N    -0.6849631238   -4.1301357487   -1.6218996506
     S    -3.1589897854    0.0771046241    1.7611503517
     C    -3.9760050265    0.0177422279    0.2802571590
     N    -4.6191722886   -0.0226155266   -0.7002673035
     S    -0.6580334021   -1.4090372349    3.9212309448
     C    -1.7320160470   -2.5641978661    4.5197310061
     N    -2.4457201271   -3.3563933039    5.0116238446
     O    -0.0875521230    0.1622235925   -0.0120386556
     H     0.8481772051    0.0197393420   -0.3129964555
     H    -0.2381559111    1.1441504843    0.0006472521
