39
-9.2389757731549912e+02 frame 49   xyz file generated by TeraChem
    Mn     0.0434739573    0.1360346816   -0.0033428323
     O     0.0585691876    2.5006506716   -0.0026425707
     C     1.2329173272    3.2756371241   -0.1978624233
     C    -1.1089455122    3.2816071069    0.2036534919
     H    -1.9405109673    2.5787043055    0.2700333157
     H    -1.2724370189    3.9679923838   -0.6399729734
     H    -1.0311193316    3.8630406649    1.1332402301
     H     2.0582215750    2.5663313819   -0.2691830575
     H     1.3990108530    3.9512754106    0.6538137150
     H     1.1607653017    3.8675924785   -1.1211735511
     O     2.3749515847    0.1351942064   -0.0253185530
     C     3.0193523911   -0.3027031144   -1.2208590525
     C     3.0296194734   -0.2482531373    1.1836373280
     H     2.3165114844   -0.0359550111    1.9819034027
     H     3.9645012594    0.3137171208    1.3171511420
     H     3.2535587800   -1.3240472088    1.1681990693
     H     2.3081233939   -0.0969253782   -2.0219317970
     H     3.2186265472   -1.3822437595   -1.1715150922
     H     3.9660971129    0.2340710572   -1.3729441696
     O     0.0665313904   -2.1625451921   -0.0034518507
     C    -0.1057144116   -2.8917973022   -1.2129091560
     C    -0.0999989598   -2.8917041637    1.2067441714
     H    -0.0216935200   -2.1325712745    1.9885565488
     H     0.6801582794   -3.6594103115    1.3114623437
     H    -1.0867578388   -3.3770097542    1.2360020389
     H    -0.0308184566   -2.1328066062   -1.9951731885
     H    -1.0925153510   -3.3772212376   -1.2374360774
     H     0.6739785570   -3.6595053096   -1.3211380091
     O    -2.2740476773    0.1470563760    0.0184168774
     C    -2.9881360751   -0.0968721803   -1.1918964564
     C    -2.9794028064   -0.1501479367    1.2213584114
     H    -2.2361363869   -0.0486066087    2.0141233891
     H    -3.3669497988   -1.1785619240    1.1955422199
     H    -3.8174401703    0.5459441231    1.3671131331
     H    -2.2468661719    0.0102101882   -1.9864127127
     H    -3.8100830547    0.6225181839   -1.3122301674
     H    -3.3989002298   -1.1164814836   -1.1956703912
     F     0.0396635010    0.0381147470    1.9452608710
     F     0.0374563016    0.0383676913   -1.9516342953
