24
-4.8372323900731669e+02 frame 59   xyz file generated by TeraChem
    Co    -0.0183671139    0.0141903412    0.0412437176
     N    -0.0730383699    2.2750605949    0.3769643187
     H    -0.8446555145    2.6591161435    0.9231253845
     H     0.7611774099    2.7874478522    0.6649779587
     H    -0.2604346816    2.5246318088   -0.5949503376
     N     2.2399579444    0.1502804723   -0.3427245649
     H     2.7460826982    1.0161521873   -0.1558341800
     H     2.8570972355   -0.6093066808   -0.0537721507
     H     2.1369592201    0.0789405210   -1.3568481056
     N     0.0653878348   -2.2496361458   -0.3331301332
     H     0.8971721750   -2.7813060016   -0.0738523200
     H    -0.7325685997   -2.8473271872   -0.1155185812
     H     0.0925165347   -2.1443587004   -1.3493588720
     N    -2.2789936427   -0.1383231762    0.3660953325
     H    -2.6992256685   -1.0475038655    0.5592708522
     H    -2.7598527821    0.5332629612    0.9651885687
     H    -2.5189677439    0.1064935771   -0.5956709355
     N     0.3303568144   -0.2820695843    2.2337475987
     H    -0.4331629883    0.0875738652    2.7995990350
     H     0.4032309572   -1.2735153017    2.4603576133
     H     1.1856374841    0.1606939186    2.5687322381
     N    -0.2937007667    0.2609082502   -1.8635382219
     H    -0.9508752948   -0.2374489758   -2.4643617722
     H     0.1480060402    0.9565166992   -2.4652661486
