11
-1.3781100182972100e+03 frame 24   xyz file generated by TeraChem
    Cr     0.0709739143   -0.0875118087    0.0003467137
     C    -0.1858344959    2.0088660755   -0.2977664609
     N    -0.3218247834    3.1649003812   -0.4523331378
     C     2.0965508539    0.2525597522    0.3284509705
     N     3.2374988300    0.4456640855    0.5227944283
     C     0.4087680941   -2.1537028851    0.4060023323
     N     0.5995159832   -3.2890866924    0.6367934189
    Cl    -2.4069135212   -0.4835447718   -0.3338498754
     C    -0.2402326342    0.2151354681    2.0345007786
     N    -0.4067255376    0.3872863505    3.1831937311
    Cl     0.5230991157   -0.4605702459   -2.4620364913
