19
-1.6223930749521037e+03 frame 56   xyz file generated by TeraChem
    Co     0.1301661381    0.0495838491    0.0894714514
     N    -0.0765098567    2.1847941640    0.4577396901
     H    -1.0506807913    2.4326792417    0.6648506750
     H     0.4836664745    2.5643323694    1.2298397652
     H     0.1660674147    2.7426620894   -0.3687797870
     N     2.2681323146    0.2844576695   -0.2136641338
     H     2.5428006987    1.2494706819   -0.4269773591
     H     2.7920081086    0.0124289440    0.6279923216
     H     2.6327499449   -0.2969701457   -0.9758009121
     C     0.4505892459   -2.1411520278   -0.1963764079
     S     0.6600195461   -3.6222853428   -0.3969748604
     C    -2.0708725661   -0.2844973298   -0.1893905111
     S    -3.5505563390   -0.5192489450   -0.3742508532
     N    -0.2584288794   -0.3170364778    2.1942246954
     H    -0.8538798898    0.3891491546    2.6406274176
     H    -0.7089638576   -1.2230168516    2.3616480685
     H     0.6211547601   -0.3344557193    2.7258868819
     C    -0.0429893543    0.3171606796   -2.1361967285
     S    -0.1571064138    0.4888107982   -3.6316285699
