17
-2.3997335000921994e+03 frame 45   xyz file generated by TeraChem
    Cr    -0.1733091995    0.1634333345   -0.0109288366
     C    -0.5538173650    2.6775117347   -0.3959583524
     S    -0.7669276764    4.1667705129   -0.6340663410
     C     1.9116810475    0.5147858104    0.2997436443
     S     3.3924184962    0.7618060598    0.5152915368
     C     0.2008877899   -2.3491754552    0.4189162386
     S     0.4217859390   -3.8381024296    0.6524471227
     C    -2.2612813318   -0.1836659704   -0.3058974199
     S    -3.7432861587   -0.4262443737   -0.5176927184
     C    -0.5199029735    0.4608028593    2.0819058285
     S    -0.7638466052    0.6711287809    3.5637086721
     H     0.4853135279    0.4371331272   -5.1676283283
     H     1.6105518243   -0.9013676369   -4.7811306389
     C     0.5969758188   -0.5161442587   -4.6452530680
     N     0.3632477557   -0.3097315964   -3.2476007878
     C     0.1753085688   -0.1428736842   -2.1149742961
     H    -0.1309788690   -1.2382567265   -5.0231534799
