25
-1.2850014546906086e+03 frame 110   xyz file generated by TeraChem
    Cr     0.0794688871    0.0240408954   -0.0175717424
     N    -0.1317524109    2.1453304757    0.4148141274
     H    -1.0792970551    2.4025345208    0.7029856430
     H     0.4759826289    2.4813083231    1.1671146398
     H     0.0628528994    2.7376900510   -0.3973761906
     N     2.2309786723    0.2903461063   -0.3183474970
     H     2.5063771449    1.2754223969   -0.3461733429
     H     2.8064436349   -0.1298980406    0.4169635458
     H     2.5719534331   -0.0986955151   -1.2018482733
     N     0.2790771149   -2.1002623336   -0.4207624082
     H     1.2372007911   -2.3841186623   -0.6421457315
     H     0.0112702708   -2.6769386610    0.3814514292
     H    -0.2884167990   -2.4310591678   -1.2060577908
     P    -2.5439977174   -0.3779387613    0.3866282902
     H    -2.9501342796   -1.6509611823    0.8398159678
     H    -3.2039304243    0.4155854240    1.3490952974
     H    -3.4450702226   -0.2239026912   -0.6876810263
     P     0.5419406657   -0.5085430694    3.0779801907
     H     0.5655461772    0.5799866026    3.9819291383
     H    -0.3835790795   -1.2997459571    3.7985991652
     H     1.7116863698   -1.1455829758    3.5563315389
     P    -0.4352446060    0.5793763724   -3.0667423354
     H     0.6072186249    0.7054072269   -4.0150588977
     H    -1.2224268860   -0.3374588067   -3.8027509407
     H    -1.1458637574    1.7442566233   -3.4411823338
