20
-2.4965114191434213e+03 frame 51   xyz file generated by TeraChem
    Cr    -0.0422503585   -0.0600709021   -0.0875231744
     C     0.2489847145    1.9752401039    0.3597540932
     S     0.4897224152    3.4331104408    0.6674791293
     C     1.9982029945   -0.3978099185    0.3045418005
     S     3.4664962863   -0.6058594877    0.5864284726
     C    -0.3522041038   -2.1040700978   -0.4170895420
     S    -0.6150525832   -3.5814033201   -0.5944175314
     C    -2.0954141843    0.2648254596   -0.3380021527
     S    -3.5895239049    0.4584511048   -0.4536657584
     C    -0.4092646329   -0.3895907914    1.8988184125
     S    -0.6731301516   -0.6242343573    3.3677025258
     O     0.4309193949    0.3776324734   -2.0993940756
     C     0.9629676689   -0.6342219084   -2.9290914096
     C     0.4559857018   -0.5081118159   -4.1802575967
     C    -0.4348547972    0.6170047328   -4.1741334932
     C    -0.4370604882    1.1307755146   -2.9192359817
     H     1.7243474919   -1.2549709835   -2.4844723242
     H     0.7194282976   -1.1187432406   -5.0355030866
     H    -0.8755023903    2.0057144755   -2.4661711575
     H    -0.9742449812    1.0183807424   -5.0236797659
