20
-7.4256843210698889e+02 frame 64   xyz file generated by TeraChem
    Fe    -0.0027336643    0.1654336365    0.5267449993
     C    -0.3623840998    2.4388472092   -0.0235563259
     N    -0.5368188535    3.5298579973   -0.4343107570
     C     2.2101420283    0.4962839400    0.0578243789
     N     3.3470074347    0.6662499987   -0.1905452975
     C     0.3501095308   -2.1572574277    0.2091345718
     N     0.5172089400   -3.2844392345   -0.0937503649
     C    -2.2246580072   -0.1879793934    0.1207212289
     N    -3.3669834043   -0.3690590078   -0.0922345230
     C     0.0117726221    0.2858835879    2.7511431130
     N     0.0194300659    0.3451870940    3.9262443295
     O    -0.0096865165   -0.1971361685   -2.4091897351
     C     0.1872860376   -1.3796936357   -3.1293275095
     C    -0.1806491314    0.9528451316   -3.1898725637
     H    -0.3086356981    1.7817649385   -2.4889325701
     H    -1.0717734988    0.8714701581   -3.8452845677
     H     0.6999121745    1.1414754426   -3.8371744700
     H     0.3067665383   -2.1702607294   -2.3832070481
     H     1.0914659174   -1.3226709302   -3.7696947363
     H    -0.6767095763   -1.6067940382   -3.7881874758
