45
-1.2194883029793723e+03 frame 88   xyz file generated by TeraChem
    Cr    -0.0443994794    0.0352775691   -0.0016883925
     C     0.9940474559    4.1856694216    0.1975363410
     C     1.1408936591    2.9286858771   -0.3147924472
     N     0.2510396713    2.0673357153    0.3237564506
     C    -0.4183366340    2.8127421079    1.2128409061
     N     0.0076304400    4.0843966584    1.1560444559
     H    -0.3383510010    4.8464915950    1.7321558082
     H     1.4921855289    5.1173760962   -0.0277596575
     H     1.8317437596    2.5965365005   -1.0730610082
     H    -1.1866818125    2.4646212237    1.8854363142
     C     4.0833640075   -1.0659927977    0.0727373193
     C     2.8089871022   -1.1828719917   -0.4041681605
     N     1.9832841855   -0.2817080562    0.2713991911
     C     2.7705298682    0.3614835108    1.1457079524
     N     4.0297749199   -0.0913557037    1.0463011611
     H     4.8163804733    0.2326840859    1.6024087832
     H     4.9978413594   -1.5805990647   -0.1846106463
     H     2.4299688077   -1.8646064915   -1.1491873456
     H     2.4631137997    1.1384017004    1.8284822527
     C    -0.2127771351   -4.2325252051   -0.2312402932
     C     0.2827295515   -3.0683093477    0.2829073242
     N    -0.3492299577   -1.9879220537   -0.3372689085
     C    -1.2109047172   -2.5174722363   -1.2180196143
     N    -1.1465623943   -3.8570016533   -1.1730165700
     H    -1.6985630487   -4.4912584984   -1.7439945975
     H     0.0153912746   -5.2670725569   -0.0191362133
     H     1.0624590591   -2.9389596454    1.0171048595
     H    -1.8729629472   -1.9703616214   -1.8712407353
     C    -4.3153503382    0.2745049450   -0.1102589274
     C    -3.1469113610   -0.2745517966    0.3340274607
     N    -2.0753621139    0.3703834010   -0.2795538262
     C    -2.6085328926    1.2996075201   -1.0835411172
     N    -3.9476431896    1.2615492684   -1.0004574448
     H    -4.5858602941    1.8612385768   -1.5155747281
     H    -5.3475904580    0.0549803430    0.1204233563
     H    -3.0149730435   -1.0897059697    1.0274973705
     H    -2.0652898002    1.9890799351   -1.7109846301
     C    -0.6384032247   -0.9849727634    2.8301451984
     O    -0.3717648984   -0.1062019510    2.0103964354
     H    -0.7628151675   -0.7092477536    3.8851960117
     H    -0.7535735781   -2.0365247313    2.5362739765
     C     1.0189788941    0.4068602360   -2.8588221539
     O     0.1252942384    0.3605140603   -2.0136315304
     H     2.0727639794    0.2397524919   -2.5990399836
     H     0.7545466396    0.6179985128   -3.9029777059
