51
-1.9363061966442306e+03 frame 395   xyz file generated by TeraChem
    Co   -54.0173769405   -6.0592784950   -0.3736335650
     C   -56.6688797635   -3.7703530929    2.9649308173
     C   -56.7162370459   -5.1618370192    2.8628233730
     C   -55.9306035004   -5.7917257222    1.9057112194
     N   -55.1205790366   -5.1051298805    1.0679994102
     C   -55.0725470017   -3.7563783636    1.1756506132
     C   -55.8301501633   -3.0566254712    2.1056008032
     H   -57.2720163868   -3.2507362118    3.7031860601
     H   -57.3498739469   -5.7542184821    3.5140537008
     H   -55.9350436512   -6.8717101696    1.7984654000
     H   -54.3995460290   -3.2398471136    0.4973059016
     H   -55.7595635403   -1.9753118281    2.1547743681
     C   -49.6934651806   -3.8669873130   -0.5116155406
     C   -50.2799173366   -4.2008240585    0.7116536858
     C   -51.5200452836   -4.8255895567    0.7118997840
     N   -52.1816250404   -5.1260975209   -0.4307539283
     C   -51.6099227060   -4.7995840334   -1.6123905482
     C   -50.3726889037   -4.1721995792   -1.6923777610
     H   -48.7254380538   -3.3763419467   -0.5432631767
     H   -49.7876221039   -3.9796296778    1.6526296584
     H   -52.0108642430   -5.0959704726    1.6424869530
     H   -52.1703566426   -5.0482854121   -2.5080696701
     H   -49.9546062664   -3.9280395417   -2.6630333775
     C   -53.5060668386  -10.7764905400    0.6247266425
     C   -54.7113833477  -10.2875259009    0.1152752696
     C   -54.8178893859   -8.9326342773   -0.1697669562
     N   -53.7973272483   -8.0656352997    0.0314632053
     C   -52.6311394599   -8.5453477904    0.5208599092
     C   -52.4486464281   -9.8882193155    0.8278753678
     H   -53.3928920880  -11.8311946013    0.8562794828
     H   -55.5569029307  -10.9435673879   -0.0619367778
     H   -55.7356147457   -8.5162485832   -0.5753556762
     H   -51.8293083488   -7.8267725013    0.6591529274
     H   -51.4942863385  -10.2264850125    1.2168733856
     C   -56.1717470433   -5.8661733670   -4.7112032200
     C   -55.1656368214   -6.7993022223   -4.4500208682
     C   -54.5839557935   -6.8214860156   -3.1894623011
     N   -54.9519759039   -5.9681926811   -2.2042739444
     C   -55.9289818032   -5.0690700989   -2.4615496131
     C   -56.5594162464   -4.9884210087   -3.6972133895
     H   -56.6465250843   -5.8259357929   -5.6867972643
     H   -54.8366795299   -7.5022550617   -5.2078499402
     H   -53.8065377495   -7.5385637929   -2.9419356350
     H   -56.2053682336   -4.4059284274   -1.6481142805
     H   -57.3392037784   -4.2514881895   -3.8565168574
     S    26.5382865523    6.3522647217   79.3899507832
     H    26.9359143857    5.5372267957   80.3946557024
     H    26.5112747013    7.4466464252   80.1858453894
     S    28.4743686900   -0.6150047130  -79.7397678930
     H    27.3999278276   -1.0814580600  -80.4178994984
     H    28.2527591828    0.6656000703  -80.1176830032
