30
-6.1261010875178147e+02 frame 60   xyz file generated by TeraChem
    Mn    -0.0917241500    0.0968013796   -0.0037043449
     N    -0.3323973680    2.3873614644   -0.4539841288
     H    -1.2936804951    2.6759442670   -0.6483944055
     H    -0.0131018118    3.0278699478    0.2760781279
     H     0.1987221011    2.6374140554   -1.2915962723
     N     2.2121833823    0.4286346828    0.3464219100
     H     2.4213331879    1.4044525325    0.5678639085
     H     2.6670017588   -0.1147568487    1.0830578473
     H     2.7395605645    0.2385105485   -0.5081581828
     N     0.1535485201   -2.2155251273    0.3755115050
     H     1.1093422197   -2.5067694729    0.5915925486
     H    -0.4222194773   -2.6291514743    1.1123477767
     H    -0.0937298334   -2.7201748968   -0.4786471978
     N    -2.3829123624   -0.2909898605   -0.3239174867
     H    -2.7499325483   -1.1202627772    0.1480493489
     H    -3.0301625193    0.4617287168   -0.0796978225
     H    -2.5284121802   -0.4642896268   -1.3213276638
     N    -0.4175893485    0.4703187268    2.2935327346
     H    -1.4048406776    0.6044032833    2.5225366967
     H    -0.1116458737   -0.3096397021    2.8793516730
     H     0.0581979879    1.2911529738    2.6743559293
     C    -0.0409167528   -0.0330644191   -4.4760119310
     C    -0.4779806656    0.3900267875   -3.2503456461
     N     0.2408161878   -0.2457257122   -2.2451486242
     C     1.1022238485   -1.0430100547   -2.8750951908
     N     0.9598392704   -0.9394136451   -4.2137968619
     H     1.4993849281   -1.4443816174   -4.9081660069
     H    -0.3432255083    0.2228611211   -5.4803132548
     H    -1.2569032541    1.1076857395   -3.0372221093
     H     1.8282139211   -1.6967587269   -2.4130535166
