13
-7.5200573226201743e+02 frame 660   xyz file generated by TeraChem
    Fe    63.7325494596    4.5456753883   73.4573366971
     F    63.1841873641    5.7477324085   72.2295142620
     F    65.4845320945    4.2634454091   73.2010461928
     F    62.8991761285    2.9677200855   73.2437186111
     C   -34.2530260055   -2.5943555950  -37.8105499489
     O   -35.3071952140   -1.9231738900  -38.0062186080
     H   -33.6825490114   -2.4605402187  -36.8496921028
     H   -34.1804804651   -3.6517651481  -38.1649927379
     F    63.4566655938    5.2758818591   75.0750518140
     C   -32.6403941986   -2.0085866773  -38.9500169305
     O   -32.6362488059   -2.4650421454  -40.1296784329
     H   -31.9045213676   -2.4102699330  -38.1991693014
     H   -32.8398893096   -0.9251631438  -38.7619878409
