10
-1.7532954757052173e+03 frame 24   xyz file generated by TeraChem
    Co    -0.0695441550   -0.0797996856   -0.0553575955
     C    -0.0103349862    2.3493351297   -0.0218062854
     S    -0.3348448676    3.7998206686   -0.3973401155
     C     2.3634800853   -0.0027021099   -0.0235351954
     S     3.8187071382   -0.2972797076   -0.4054059358
     F     0.2324243692   -1.7954356841    0.2462252009
     F    -1.7868986320    0.2242488827    0.2456107552
     C    -0.0084800730   -0.0072311718    2.3529795061
     S    -0.3356708954   -0.3144701020    3.8183511374
     F     0.2327061129    0.2250589703   -1.7717875110
