25
-5.2035613760828824e+02 frame 52   xyz file generated by TeraChem
    Fe     0.0133200606    0.0161338077    0.2375511157
     N    -0.2312417894    2.2205959393   -0.0256016944
     H    -1.1762415728    2.5582431750    0.1702833723
     H     0.3860743939    2.8334816994    0.5125533655
     H    -0.0618348096    2.4440878421   -1.0092046138
     N     2.2230585056    0.3363842563    0.0050027240
     H     2.6146205744    1.1717718118    0.4467186154
     H     2.7983552769   -0.4354154013    0.3500044930
     H     2.4463764828    0.4225323618   -0.9894225469
     N     0.2580164873   -2.1936441659   -0.0769477585
     H     1.1770502815   -2.5649646896    0.1741669179
     H    -0.4143072138   -2.8110191525    0.3844384333
     H     0.1570830323   -2.3704284217   -1.0790647679
     N    -2.2021184610   -0.3121058477   -0.0394415541
     H    -2.5986098060   -1.1447630161    0.4029142878
     H    -2.7948653205    0.4591282792    0.2761882829
     H    -2.3954238167   -0.4131447996   -1.0384630142
     N    -0.0705148949   -0.0778633468    2.4625077494
     H    -0.9846389251    0.1543855952    2.8586166050
     H     0.1607161475   -0.9991497713    2.8428162611
     H     0.5847291902    0.5635374098    2.9170476764
     C     0.0282143753    0.0364089196   -3.4714905528
     O     0.0139495702    0.0114476450   -2.2476680526
     H     0.5260690882    0.8486761821   -4.0252985978
     H    -0.4565626702   -0.7528296618   -4.0683578601
