11
-5.8908210267439449e+02 frame 33   xyz file generated by TeraChem
    Cr    -0.0606528434   -0.1807787602   -0.2482546058
     O    -0.0540535280    1.8737665074    0.0515336909
     H    -0.1882084959    1.7440023819    1.0118626197
     O     1.9865259920    0.2184276604    0.1068100919
     H     1.7949471194    1.1791531072    0.1019969126
     O     0.2319778247   -2.1168743021    0.0379052643
     H     0.1822367433   -2.0555951237    1.0111262320
     F    -1.9362269850   -0.3337583901   -0.3901484893
     O    -0.0034845935   -0.1238570394    1.9059883870
     H     0.9525418434   -0.0375321488    1.6854325588
     F     0.1600323936   -0.1669542209   -2.1112349037
