34
-8.4770078557731517e+02 frame 49   xyz file generated by TeraChem
    Mn     0.8137299397   -0.2871699910    0.1435498702
     C     0.0815220129    1.7337615313    0.2311379846
     N    -0.3427361903    2.8187875557    0.3613629758
     C     2.9137916902   -0.6026243020    0.0103684691
     N     4.0683682347   -0.7680280616   -0.1000310575
     C    -0.5689678796   -1.9397607848    0.1773822826
     N    -1.3746153102   -2.7913594170    0.1626441800
     O    -3.1639358691    0.4944241960   -0.2045186622
     C    -3.6912827851    1.8004641850   -0.1645401666
     C    -4.1445623697   -0.5166504995   -0.2197123265
     H    -3.6109264641   -1.4701665648   -0.2034605992
     H    -4.7800229309   -0.4563181050   -1.1220411873
     H    -4.8046441083   -0.4511771280    0.6634844151
     H    -2.8377809608    2.4792496608   -0.0985626080
     H    -4.3435304044    1.9453424894    0.7153310210
     H    -4.2869915126    2.0282417836   -1.0672261206
     O     0.6929752669   -0.2110065729    2.5388358905
     C     1.5440160475    0.7825748030    3.1024127970
     C    -0.6201256873   -0.1858457048    3.0932578347
     H    -1.1798772956   -0.9805313004    2.5985473899
     H    -1.1035569475    0.7813285326    2.9013492717
     H    -0.5760784192   -0.3711113416    4.1774485299
     H     2.5192606960    0.6780380825    2.6216907150
     H     1.6472447350    0.6234148728    4.1867212779
     H     1.1450674347    1.7864485925    2.9083756440
     O     0.5443442219   -0.3237089286   -2.2462603450
     C     1.3753749190   -1.1712083515   -3.0253071059
     C    -0.8108911313   -0.3179763103   -2.6876630727
     H    -1.3812715638    0.2816112226   -1.9766839923
     H    -1.2184801053   -1.3374408156   -2.6937681448
     H    -0.8773821944    0.1166866620   -3.6970845560
     H     2.3768679008   -1.1280411614   -2.5939999550
     H     1.4017312450   -0.8266919835   -4.0708715225
     H     1.0084655232   -2.2076585038   -2.9971836888
