31
-9.9145429351003850e+02 frame 50   xyz file generated by TeraChem
    Fe    -0.0005729031    0.0005066037   -0.0024400079
     C    -0.3342175890    2.2470675733   -0.2215257434
     N    -0.4907232853    3.4046400653   -0.3590061239
     C     2.1964795226    0.3589696213    0.3322391482
     N     3.3420224643    0.5478466953    0.5068495291
     C     0.3328654949   -2.2459908834    0.2171383842
     N     0.4892355623   -3.4035119991    0.3552125220
     C    -2.1975095977   -0.3580219105   -0.3375817132
     N    -3.3430402017   -0.5469277958   -0.5122352482
     C    -0.7845242552    0.3306323648    5.1043057990
     C    -0.8097063923    1.4646050105    4.2931288470
     C    -0.5985253858    1.3128103330    2.9210504139
     N    -0.3733953476    0.1205539561    2.3544253902
     C    -0.3487810038   -0.9693713523    3.1318018197
     C    -0.5498177065   -0.9101179980    4.5127026584
     H    -0.9452437559    0.4120837991    6.1786510904
     H    -0.9886182367    2.4536569472    4.7077133161
     H    -0.6054306902    2.1525118403    2.2301439664
     H    -0.1598908179   -1.9043380488    2.6086276407
     H    -0.5206446354   -1.8224257243    5.1035139326
     C     0.7851462297   -0.3296753306   -5.1088266032
     C     0.8097079871   -1.4637393763   -4.2977620799
     C     0.5981554009   -1.3120077798   -2.9257314442
     N     0.3732839638   -0.1197423151   -2.3590410210
     C     0.3492384020    0.9702598233   -3.1363109579
     C     0.5506553657    0.9110828086   -4.5171557546
     H     0.9461760981   -0.4110515579   -6.1831311068
     H     0.9884628926   -2.4528067129   -4.7123771460
     H     0.6045973792   -2.1517874797   -2.2349248872
     H     0.1604805995    1.9052283883   -2.6130832592
     H     0.5218914561    1.8234588697   -5.1078797340
