40
-1.6175077600646064e+03 frame 89   xyz file generated by TeraChem
    Fe     0.1778449062    0.1702598486    0.1028082403
     O     0.1371096758    2.3949013833    0.0298200567
     C     1.3031810688    3.1965216949   -0.2966097107
     C    -1.0219373401    3.2476930701    0.2040163496
     H    -1.8690824663    2.6086393600    0.4482217563
     H    -1.2244523939    3.7962914332   -0.7212154209
     H    -0.8404802710    3.9550262385    1.0193729956
     H     2.1227497436    2.5056024013   -0.4772948396
     H     1.5395143410    3.8565305363    0.5435688879
     H     1.1036805432    3.7940842123   -1.1915832464
     O     2.3743381690    0.1745877282    0.1351449305
     C     3.2169339601   -0.4632917578   -0.8528997995
     C     3.1625784352    0.6904702199    1.2370301946
     H     2.4728654353    1.1707056395    1.9281107584
     H     3.8943498229    1.4145488676    0.8656814860
     H     3.6841377752   -0.1332662880    1.7346198985
     H     2.5744758823   -0.8051960293   -1.6648956444
     H     3.7425303827   -1.3126836762   -0.4053344175
     H     3.9440343619    0.2579448583   -1.2387685921
     P     0.2703423651   -2.5362360547   -0.2900727858
     H     1.5073100670   -3.2035274004   -0.4204027083
     H    -0.3379369542   -3.4075273205    0.6399684687
     H    -0.3514891079   -3.0259533245   -1.4594499978
     P    -2.5305460642   -0.1987446497    0.3729748417
     H    -3.2752209605    0.5371991811    1.3205998455
     H    -3.4194834288   -0.0809358818   -0.7182225127
     H    -2.9064668795   -1.4925980882    0.7955965461
     O     0.2072900890    0.0846106906    2.2691549862
     C     0.7419570559   -1.0282569614    3.0249108767
     C    -0.4138901372    1.0686988728    3.1327375835
     H    -0.7164950947    1.9024926644    2.5029247787
     H     0.3147224425    1.4125278352    3.8731713213
     H    -1.2779690828    0.6304422378    3.6414777975
     H     1.3003318433   -1.6593945723    2.3333695776
     H    -0.0740199743   -1.5953008300    3.4836748756
     H     1.4167617284   -0.6570883518    3.8023255371
     P    -0.1216637977    0.5748235678   -2.5562586583
     H    -0.2413287542   -0.4548097860   -3.5141500975
     H    -1.2541288139    1.3367575869   -2.9129927558
     H     0.8662052284    1.3541235097   -3.1952092957
