20
-7.5037901851026959e+02 frame 747   xyz file generated by TeraChem
    Co    -3.5428385974   26.8255463073   80.7941724476
     O    -4.2998913733   28.6549574654   81.1201489797
     H    -4.4144981828   28.5452350633   82.0799246890
     O    -1.7469122638   27.1244939939   79.9220355319
     H    -1.8712688212   28.0802407453   79.7894654163
     O     1.7060210543  -12.1174377360  -40.3490762721
     H     1.2028378170  -12.4197573478  -39.5782384033
     O    -4.6418047366   25.6668310250   79.6043725592
     H    -3.9652644196   25.5465656046   78.9160115903
     O    -3.2013494414   26.0462172356   82.6137764696
     H    -2.2425453034   25.9393008299   82.4918606388
     C     2.3955036103  -15.6893270185  -41.3932013515
     C     1.8603564839  -16.7953179040  -42.0365002683
     N     0.6801578608  -16.4496041690  -42.6491385654
     C     0.5663046946  -15.1461676416  -42.3407520729
     N     1.5587142043  -14.6180101266  -41.5893295469
     H     1.7160884289  -12.9593952984  -40.8967086110
     H     3.3101187040  -15.5940024089  -40.8138338383
     H     2.2522143958  -17.8087823031  -42.0941118022
     H    -0.2756628277  -14.5420590663  -42.6748366490
