48
-1.6709812836968858e+03 frame 62   xyz file generated by TeraChem
    Mn     0.0505663787    0.0152221837    0.2714797679
     C     1.4204484512    4.2907904307    0.0008009677
     C     1.6031695480    2.9582674266    0.2492691387
     N     0.4121943407    2.2747775119    0.0489426253
     C    -0.4753881064    3.1942175416   -0.3146471991
     N     0.0946051058    4.4193608391   -0.3554412532
     H    -0.3723362710    5.2820753407   -0.6054758686
     H     2.0923706640    5.1343379822    0.0407192172
     H     2.5061337847    2.4489756355    0.5470910166
     H    -1.5147675374    3.0169765421   -0.5439714360
     C     4.5303572424   -0.4414875104    0.3277044784
     C     3.3528058615   -0.1104720692   -0.2850518962
     N     2.2939158966   -0.3142955846    0.5870855731
     C     2.8354209537   -0.7624504532    1.7144625005
     N     4.1790773333   -0.8536461576    1.5956896520
     H     4.8170228097   -1.1699356941    2.3154504608
     H     5.5547555950   -0.4211455579   -0.0111869570
     H     3.2017037060    0.2631219880   -1.2861363040
     H     2.2998612767   -1.0272783618    2.6137667009
     C     0.1722242458   -4.4018542665   -0.4571986625
     C     0.7383622846   -3.1686853215   -0.2866875490
     N    -0.2483994383   -2.2319464300   -0.0209977708
     C    -1.3972148612   -2.8996310141   -0.0336006375
     N    -1.1833516882   -4.2096900255   -0.2908510109
     H    -1.8961609140   -4.9261718245   -0.3489671331
     H     0.5956821579   -5.3702763521   -0.6749786457
     H     1.7794737587   -2.8910132725   -0.3408373587
     H    -2.3779172210   -2.4799355735    0.1335657096
     C    -4.4195076171    0.5028933327    0.1942687471
     C    -3.1933116597    0.3895638655    0.7920883136
     N    -2.2001542418    0.3464392275   -0.1757012837
     C    -2.8299340418    0.4322801371   -1.3421804750
     N    -4.1668199802    0.5297169712   -1.1606310152
     H    -4.8607770523    0.6082391856   -1.8939324799
     H    -5.4189286668    0.5688381325    0.5963266723
     H    -2.9649765431    0.3368829864    1.8451430774
     H    -2.3644334164    0.4230026465   -2.3162577931
     C    -0.7228948047   -0.5604408297    4.6048244801
     C    -0.6063567122   -1.0059365887    3.3162542624
     N    -0.3169295401    0.0613576669    2.4793644315
     C    -0.2588727370    1.1357773352    3.2580552653
     N    -0.4988062520    0.7996492512    4.5452945780
     H    -0.5129111091    1.4383823842    5.3309562270
     H    -0.9401971034   -1.0693740290    5.5314026051
     H    -0.7099865115   -2.0082914498    2.9295543942
     H    -0.0404641587    2.1408987781    2.9293750262
     C     0.4780606403   -0.0817897077   -2.2342900306
     S     0.7997989714   -0.2497237638   -3.7181670884
