25
-6.2947227354792017e+02 frame 711   xyz file generated by TeraChem
    Fe    -5.5542101398  -12.2405499208   57.5778668297
     N     3.4248689162    6.0455972043  -28.6437514171
     H     3.5126271450    7.0589219495  -28.5333801530
     H     2.5336832284    5.8286200973  -28.1905005655
     N    -4.2600841220  -11.9322171850   56.1076514719
     H    -4.3610200561  -12.6481779351   55.3811934641
     H    -4.4501409126  -11.0470257724   55.6284135696
     N    -5.1389899930  -14.0044438998   58.3588019956
     H    -4.9099734170  -13.8626745390   59.3460465835
     H    -4.2799447577  -14.3735587366   57.9400426561
     N    -7.4136697420  -12.2576468629   56.9351415834
     H    -7.7976915787  -13.2044207060   56.9750078064
     H    -7.5114531264  -11.9615351381   55.9607365997
     N    -5.3333906385  -10.8062813138   58.8959873906
     H    -6.1080462026  -10.1409607677   58.9031439580
     H    -4.4789246223  -10.2621869338   58.7576169341
     C     2.6696195539    5.3922861711  -32.7202189664
     C     1.7862197236    5.8676487141  -33.6799824791
     N     0.9645924607    6.8167461752  -33.1227026736
     C     1.4029160047    6.8593586421  -31.8506253434
     N     2.4241757339    6.0333099676  -31.5311876026
     H     3.2126880436    5.9320043189  -29.6551779007
     H     3.4526530686    4.6425943740  -32.8081127088
     H     1.6958490375    5.5848196349  -34.7273173241
     H     0.9589595438    7.5252402143  -31.1104971098
