10
-7.6309805372835456e+02 frame 133   xyz file generated by TeraChem
    Fe     0.5024552154   -0.4265840567    0.4150039147
     C    -1.8403529600    2.2418249173    1.1987891210
     O    -2.9230771411    2.1144438625    0.8570605706
     C     3.8137602932    0.3999913585    1.7735401127
     O     4.5114755175   -0.3541852972    2.2737526649
     C     0.1332157299   -2.2705048419   -2.5878738070
     O    -0.5056731558   -1.8026138762   -3.4108406754
     F    -1.1339020345   -0.1410389262    1.1769225095
     F     1.7663510956   -0.9645796553    1.6276076971
     F     0.7956802426   -0.1692306896   -1.3578216386
