21
-1.2217179024059251e+03 frame 69   xyz file generated by TeraChem
    Fe     0.0381017454   -0.0006305335   -0.0171548132
     N    -0.2858649877    2.2174018673    0.2272187531
     H    -1.2820911653    2.4442325073    0.1829444331
     H     0.0420247593    2.6036645483    1.1158013471
     H     0.1541209695    2.7814898426   -0.5036901328
     N     2.2735335513    0.2559752652    0.3299349727
     H     2.5229075017    1.2415861836    0.4412529688
     H     2.6666577952   -0.2131022372    1.1493677863
     H     2.8317021558   -0.0663184450   -0.4638958941
     N     0.3527624254   -2.2130654732   -0.3105769016
     H     1.1938344183   -2.5929527492    0.1305484727
     H    -0.4230440250   -2.7900335390    0.0231214365
     H     0.4426678601   -2.4307871495   -1.3057506004
     C    -2.1951992429   -0.3298365108   -0.3867506602
     S    -3.6684717334   -0.5544403970   -0.6856092901
     N    -0.2891658968   -0.2745703467    2.2153274599
     H    -1.1601830465    0.1459832130    2.5474355507
     H    -0.3689369644   -1.2649511647    2.4576410155
     H     0.4432847331    0.0928614799    2.8270121594
     C     0.3488391011    0.3522757688   -2.2642417873
     S     0.4986348450    0.5953221878   -3.7573088239
