46
-1.4162490125568493e+03 frame 72   xyz file generated by TeraChem
    Mn     0.0631140280   -0.2371320164   -0.2282344505
     C     1.4756243951    2.1520160728   -0.7681759323
     O     0.2668966556    1.7908164830   -0.5244615413
     O     1.5891246782    3.4980918927   -0.7826422443
     H     0.6914578599    3.8710356945   -0.5849106580
     C     3.1260135680   -0.5518810760    0.6009450651
     O     2.3172397585   -0.9254872904   -0.2299227971
     O     2.9462231953   -0.0283115045    1.7652587619
     H     1.9247402399    0.0333369761    1.9645732955
     C    -0.4672965497   -5.3133621705   -0.1432799603
     C    -0.8100421759   -4.5496431191    0.9711553433
     C    -0.7281248635   -3.1605565358    0.8912192180
     N    -0.3336464276   -2.5250040367   -0.2300514404
     C    -0.0027013244   -3.2672068579   -1.3013854904
     C    -0.0546936086   -4.6578614691   -1.3035488621
     H    -0.5173746394   -6.3983356842   -0.1092109560
     H    -1.1322470810   -5.0143639778    1.8976234163
     H    -0.9672920609   -2.5128801780    1.7359552852
     H     0.3114057387   -2.7076536396   -2.1759599407
     H     0.2265938330   -5.2088096855   -2.1954301190
     C    -4.8973879732    0.8468514441    0.6654987210
     C    -3.9001772209    1.8182683308    0.6084050599
     C    -2.6057159162    1.4387507655    0.2580219845
     N    -2.2763732795    0.1645032830   -0.0256995261
     C    -3.2429141161   -0.7666198136    0.0311406752
     C    -4.5616142424   -0.4731284847    0.3667901671
     H    -5.9152294220    1.1110494427    0.9390339825
     H    -4.1125350539    2.8584932167    0.8341760072
     H    -1.7951799944    2.1585181838    0.1944467038
     H    -2.9459185089   -1.7854130696   -0.1966858931
     H    -5.3016388937   -1.2665667683    0.3990559169
     C    -0.4581582831   -0.5486754987    2.7992969419
     O     0.3855446812   -0.1309627167    1.9138249202
     O    -0.0906408637   -0.2111749320    4.0449106395
     H     0.7430966231    0.3227936713    4.0121859888
     C     0.3214180079    0.4800020386   -5.2973191987
     C     1.4730690971    0.2800615466   -4.5394666180
     C     1.3434534101   -0.0942538002   -3.2031861443
     N     0.1469324098   -0.2802195012   -2.6155005926
     C    -0.9591153815   -0.0778568135   -3.3511254213
     C    -0.9222171495    0.2994079060   -4.6901479099
     H     0.3891899087    0.7771856809   -6.3402328002
     H     2.4614935626    0.4195135007   -4.9650338063
     H     2.2069695043   -0.2467091587   -2.5667904248
     H    -1.9026976729   -0.2144868453   -2.8300478792
     H    -1.8469841347    0.4517053866   -5.2377307098
