43
-2.3220257940970423e+03 frame 82   xyz file generated by TeraChem
    Mn     0.0546284093    0.0636669348    0.1050929768
     C     0.5474211553    5.1083958616   -0.6133664549
     C     1.3913353760    4.4407855527    0.2733958566
     C     1.2520547611    3.0652671563    0.4218394511
     N     0.3409845708    2.3452336747   -0.2592030867
     C    -0.4716651289    2.9960246266   -1.1122774958
     C    -0.4018043571    4.3707220236   -1.3174168828
     H     0.6255969614    6.1833058419   -0.7489878043
     H     2.1395122278    4.9724098622    0.8521683819
     H     1.8701542702    2.5110216565    1.1204386385
     H    -1.1983752915    2.3854654619   -1.6366847528
     H    -1.0827617470    4.8439468629   -2.0167465173
     C     5.0023912177   -0.7117384043   -0.1692905701
     C     4.2167125442   -1.4000843893    0.7557873538
     C     2.8479765932   -1.1605740062    0.7824342059
     N     2.2429339284   -0.2887235836   -0.0493008137
     C     3.0053165627    0.3761938223   -0.9384565969
     C     4.3826149994    0.1905443584   -1.0298422624
     H     6.0748887887   -0.8771502397   -0.2163907831
     H     4.6502931150   -2.1113268785    1.4509533637
     H     2.2077983801   -1.6766030597    1.4887653239
     H     2.4965965650    1.0607847854   -1.6058637966
     H     4.9442774782    0.7481214981   -1.7717322326
     C    -0.8107534394   -4.9438833917    0.8440042176
     C    -1.2745705621   -3.9954742154    1.7539567282
     C    -0.9673546201   -2.6543020778    1.5426313768
     N    -0.2357598896   -2.2329081603    0.4940687655
     C     0.2056370796   -3.1535899078   -0.3834536552
     C    -0.0544423240   -4.5132878322   -0.2452059719
     H    -1.0398452541   -5.9973623921    0.9770891646
     H    -1.8738830919   -4.2800723099    2.6124133246
     H    -1.3138869407   -1.8819257831    2.2207860117
     H     0.7704501162   -2.7735141183   -1.2283323652
     H     0.3205695174   -5.2116575045   -0.9862147104
     S    -2.3853209786    0.4532361485    0.4924844065
     C    -3.0885986566   -0.7580606147   -0.4400611110
     N    -3.5924135849   -1.6129066626   -1.0641757024
     S     0.4543056919    0.4200854681    2.5708686182
     C    -0.6208084436    1.6488118892    2.9793487866
     N    -1.3535690471    2.5147433939    3.2707161610
     S    -0.4280423040   -0.3840446872   -2.3399022702
     C     0.6393643216    0.6246795708   -3.1569339157
     N     1.3819121745    1.3307454314   -3.7286346745
