25
-1.5293438365508130e+03 frame 248   xyz file generated by TeraChem
    Cr    -0.0991421520    2.2994469631   -0.6062489403
     C    -0.6321156155    5.0264849725   -1.1159688410
     O    -0.2350310599    4.2402009596   -0.1894892180
     O    -0.7274148580    6.3009055983   -0.6500995498
     H    -0.4415407863    6.2700046117    0.2983622651
     C     2.6568118356    1.7743832812   -1.2788736702
     O     1.9622212722    2.0032275966   -0.2469400153
     O     2.3779472724    1.6622802887   -2.4728652121
     H     0.7788423432   -0.4780505070   -1.9646902011
     C    -0.0391253548   -0.6790690638   -1.2452013564
     O    -0.5855179454    0.3808863806   -0.7331453764
     O    -0.3632872877   -1.8386646269   -0.9895336243
     H    -1.1258987634    0.0466278847    1.3907529508
     P    -3.3842416990   -2.7890557667    0.7756364842
     H    -2.2030136041   -2.3497912021    0.1064978630
     H    -4.1005774074   -1.5780478917    0.5440685100
     H    -2.9438019837   -2.3766116228    2.0685724873
     C    -1.0934902849    0.9511199269    2.0047716717
     O    -0.8329026293    2.0606156002    1.5741968462
     O    -1.3753596468    0.7285646241    3.2953192421
     H    -1.3056619144    1.5949149883    3.7442230802
     P    -0.4045173513    2.7587103490   -3.1648361404
     H     0.4789360450    3.6896122531   -3.7414044084
     H    -0.2360721850    1.7146656865   -4.1161363944
     H    -1.6091153532    3.2819583317   -3.7012291858
