13
-1.6598226511814355e+03 frame 89   xyz file generated by TeraChem
    Fe    -1.1062365835    0.5549509840    0.0404738324
     C    -0.7617298704    2.2204587237    0.9726801970
     S    -0.4482919944    3.5886283084    1.6643076598
     C     1.5434130442   -0.8345299749   -0.2118987768
     S     2.7337674595    0.2719452966   -0.6369789451
     O     1.3954246138   -1.9967273915   -0.8797391738
     H     2.0467681682   -1.9617090715   -1.6079210279
     O    -2.5826833847   -0.3851390124    0.6088623219
     H    -2.3640774773   -0.8340893420    1.4423763170
     C     0.5363686766   -0.5895858988    0.7750324081
     S     0.4725964273   -1.1926441036    2.3092416032
     O    -0.8784009892    0.8156680435   -1.7779808327
     H     0.0585225588    0.9882158433   -1.9702275716
