53
-1.3077168004219632e+03 frame 60   xyz file generated by TeraChem
    Cr    -0.0010908989   -0.0142690143    0.0022423243
     C    -0.5888546230    4.8167482243   -0.7413847079
     C     0.4376958230    4.3470297175    0.0825257508
     C     0.5706442794    2.9792652435    0.2805926652
     N    -0.2670746209    2.0695867542   -0.2827157270
     C    -1.2578469950    2.5347765265   -1.0847952628
     C    -1.4457327570    3.8883553738   -1.3359128773
     H    -0.7136335322    5.8808300270   -0.9195132250
     H     1.1353980975    5.0283782085    0.5586519827
     H     1.3826914261    2.5910684228    0.8856154330
     H    -1.9138326247    1.7981550927   -1.5319930866
     H    -2.2532318046    4.2033658956   -1.9887805507
     C     4.7885448893    0.6019862230   -0.7791259706
     C     4.3322349914   -0.0996983900    0.3396927993
     C     2.9657621895   -0.2599561441    0.5260799691
     N     2.0476396620    0.2517216016   -0.3357041746
     C     2.4973456156    0.9347745669   -1.4204952188
     C     3.8497234049    1.1229041259   -1.6733574460
     H     5.8522221651    0.7386989337   -0.9510376612
     H     5.0235895954   -0.5240903792    1.0604765676
     H     2.5858500528   -0.8161277330    1.3752519732
     H     1.7478872619    1.3400784921   -2.0899990557
     H     4.1565222523    1.6732450126   -2.5568324745
     C     0.8153283690   -4.8039416652    0.6974154650
     C    -0.0340494541   -4.0882597414    1.5439002338
     C    -0.2576451121   -2.7397029738    1.2968468520
     N     0.3200869819   -2.0805541888    0.2606384575
     C     1.1559310533   -2.7809916386   -0.5502048248
     C     1.4188740557   -4.1321353894   -0.3693025457
     H     1.0074792993   -5.8593180144    0.8673205570
     H    -0.5203630805   -4.5643025012    2.3891211206
     H    -0.9155996953   -2.1647808439    1.9367635834
     H     1.6408284060   -2.2299815136   -1.3480720391
     H     2.0939952051   -4.6427949856   -1.0483756308
     C    -4.8378082358   -0.5744127204    0.7721104627
     C    -4.1344078293   -1.4803301848   -0.0254135968
     C    -2.7722635575   -1.2928642190   -0.2186424134
     N    -2.0866953065   -0.2555637001    0.3250417031
     C    -2.7813968793    0.6221731001    1.0923495544
     C    -4.1415005358    0.4944696799    1.3410951236
     H    -5.9028442650   -0.6980023472    0.9452213591
     H    -4.6298983904   -2.3270585007   -0.4892481179
     H    -2.2041709006   -2.0027555034   -0.8079772117
     H    -2.2301884256    1.4634392551    1.4950825353
     H    -4.6431785366    1.2263489119    1.9658075475
     C     0.2262562098    0.9417807827    2.9481807734
     O     0.3003949844    0.1377767516    2.0194639680
     H    -0.0915468602    1.9815537724    2.7931341211
     H     0.4847256841    0.6117891811    3.9626804688
     C    -0.5133717760   -0.9995281911   -2.8934811404
     O    -0.3003982533   -0.1606786030   -2.0186719089
     H    -0.6482897075   -0.6666290677   -3.9307537403
     H    -0.5687391191   -2.0736447052   -2.6712890175
