23
-1.5633709192659469e+03 frame 290   xyz file generated by TeraChem
    Fe     0.4390951410    0.3125930639   -0.0594009608
     C    -0.6535532659    3.1734570674    0.3693353915
     O     0.3214421596    2.4601636279    0.1660280280
     H    -0.5286435642    4.2619575575    0.4451467218
     H    -1.6573734955    2.7431996560    0.4779458902
     C     3.2872722348    1.5446449667   -0.3972155997
     O     2.5071863425    0.6025715230   -0.4044036410
     H     4.3488053003    1.3727519211   -0.6195643068
     H     2.9548635706    2.5685254019   -0.1727894848
     C     0.4918283725   -2.8478737455   -0.3616352739
     O     0.9557764794   -1.7151730315   -0.3099890746
     H    -0.5856651188   -3.0434476898   -0.3367421527
     H     1.1727914365   -3.7050362212   -0.4489751294
     C    -2.5408528791   -0.5973100627    0.4090138059
     O    -1.6484150768    0.2403787848    0.3070643695
     H    -3.5777940189   -0.2674153145    0.5556614523
     H    -2.3400881415   -1.6711933865    0.3742406140
     S     0.8589645398    0.0460876488    2.3995781143
     C    -0.1240296138   -1.3021481978    2.5133762496
     N    -0.8315207461   -2.2394368042    2.4980269180
     S    -0.0204452686    0.5591397856   -2.5007055644
     C    -1.0244870357   -0.7808839840   -2.4880927206
     N    -1.7226678209   -1.7189674740   -2.3807238561
