32
-9.6493204470230739e+02 frame 81   xyz file generated by TeraChem
    Co    -0.0945754499   -0.1211193230   -0.1261951553
     C    -0.3614065176    2.9626969006    0.6846313777
     O    -0.4913203045    1.9560228227   -0.0072549248
     H     0.1267596917    2.9299907271    1.6696007588
     H    -0.7378607745    3.9307810783    0.3275106782
     C     2.8471564343    0.1854071389    0.8977122577
     O     1.9839043226    0.2018398649    0.0221709771
     H     2.6046593424   -0.0565563169    1.9426280688
     H     3.8910890567    0.4118668341    0.6428026066
     C     0.3760376515   -3.2178065561   -0.0255681899
     O     0.2565029223   -2.1522110401   -0.6279303414
     H     0.5910876264   -4.1408467904   -0.5805783759
     H     0.2714583069   -3.2790443125    1.0671515490
     C    -3.1757809010   -0.9486004595   -0.3931198151
     O    -2.1393442027   -0.3209277382   -0.5926417389
     H    -4.0939651018   -0.6834529710   -0.9346689125
     H    -3.2207975134   -1.7820822185    0.3234862863
     C    -0.8854947890   -0.4019397835    2.9731693408
     O    -0.2588869456   -0.5631668760    1.9273049765
     H    -0.5556358860   -0.9012137832    3.8946432342
     H    -1.7806382557    0.2357838898    3.0190001055
     C     0.6132861514    0.7273398578   -5.2215245275
     C    -0.3414881500    1.4267925373   -4.4878436687
     C    -0.4995301794    1.1569109034   -3.0687021236
     N     0.2291778379    0.2498727034   -2.4008112912
     C     1.1467057954   -0.4223269491   -3.1113096115
     C     1.3743627558   -0.2129452415   -4.5311213581
     H     0.7577399895    0.9064469250   -6.2837665567
     H    -0.9799410924    2.1784059391   -4.9471355207
     H    -1.2370519224    1.7108531828   -2.4947839614
     H     1.7388555726   -1.1610152078   -2.5799973187
     H     2.1418361771   -0.8041225274   -5.0260915247
