40
-1.1189076268147510e+03 frame 157   xyz file generated by TeraChem
    Cr    -0.4262704372    0.1717009864    0.0657245949
     C    -1.2563044409    2.6565329544   -0.5346976035
     O    -0.7537898843    2.0587430612    0.4866488567
     O    -1.4256356512    3.9696815763   -0.2969524921
     H    -1.0884702208    4.1575686802    0.6149475332
     C     2.3405947436    0.0307108122    1.1688288565
     O     1.5622911855    0.3097484701    0.1993801394
     O     2.7210114859   -1.0418593826    1.6194731146
     H     1.6768136368   -2.2649327682    0.3398440587
     C     0.7607307011   -2.6100339236   -0.1598881402
     O    -0.2391467636   -1.9170447199   -0.3337644080
     O     0.8062974305   -3.8778417544   -0.5461214359
     H    -0.0554316794   -4.0993596789   -0.9548320386
     O    -2.5023927952   -0.2277147279   -0.1239107307
     C    -3.0326210698   -0.1261986523   -1.4587357636
     C    -3.4004210668    0.2782325998    0.8728938838
     H    -2.9056034317    0.1443797349    1.8355720025
     H    -4.3335385311   -0.2974251465    0.8413878882
     H    -3.6078669968    1.3400997671    0.7017795045
     H    -2.2546675086   -0.4808280204   -2.1362723238
     H    -3.2572455714    0.9201747249   -1.6876650134
     H    -3.9320259381   -0.7495284635   -1.5366585252
     O    -0.4878705240   -0.2060184421    2.6833304288
     C    -0.0828615380    0.9225373187    3.4580329672
     C    -0.1998707425   -1.4407290734    3.3277578591
     H    -0.6159186163   -2.2317229545    2.6988176261
     H    -0.6758531000   -1.4857656682    4.3185453095
     H     0.8825613484   -1.5847171160    3.4306844932
     H    -0.3534394593    1.8052508681    2.8797607481
     H     1.0019088211    0.9092910741    3.6245258407
     H    -0.6022573282    0.9272730936    4.4277098279
     O    -0.0212000264   -0.1078865254   -2.8992036100
     C     0.2675649524    1.2200223065   -3.3374694107
     C     0.9438171236   -1.0348381031   -3.3605184799
     H     0.6196160609   -2.0307604157   -3.0492182304
     H     1.9340947293   -0.8237087681   -2.9304802643
     H     1.0216597576   -1.0153488215   -4.4583669405
     H    -0.4712454340    1.8734256397   -2.8700746879
     H     0.2087928935    1.2838145370   -4.4345194911
     H     1.2717539212    1.5258808646   -3.0108164821
