37
-1.9798940443669078e+03 frame 287   xyz file generated by TeraChem
    Mn     0.3240737863    0.0583772241    0.2641064528
     C     0.1925841009    4.5128401168   -0.3674014669
     C     0.7838725981    3.2908600133   -0.0268501711
     N    -0.1532531370    2.2895484837   -0.0876208212
     C    -1.2965619132    2.8862995163   -0.4582046422
     N    -1.1090897846    4.2196718375   -0.6301899087
     H    -1.8267796275    4.8862902078   -0.9086568154
     H     0.5991178944    5.5133712392   -0.4313323063
     H     1.8094039035    3.1192108365    0.2618879175
     H    -2.2506049165    2.3990710691   -0.6041613619
     C     4.6494040946    0.6826270810    1.1024511897
     C     3.3041216500    0.5039279121    1.4324365510
     N     2.5548167641    0.4238190399    0.2843440097
     C     3.4248295217    0.5529495928   -0.7313804775
     N     4.6859703476    0.7085450738   -0.2591906541
     H     5.5216307960    0.8154581872   -0.8311052942
     H     5.5321401682    0.7825761058    1.7197807181
     H     2.8702903665    0.4243044372    2.4177184578
     H     3.1814380411    0.5299119749   -1.7846089801
     S     0.8916765983   -2.6617906666   -0.2029650249
     H    -0.0708293356   -3.5065782593    0.2205633959
     H     1.8525750893   -3.1582345565    0.6038424952
     S    -2.3919843713   -0.4351786673   -0.1890059012
     H    -2.6000149851   -1.4036499710   -1.1039853863
     H    -2.9847393610   -1.0938146706    0.8281292434
     C    -0.3387842829    0.7193032574    4.5913783200
     C    -0.1137997816    1.1291568266    3.2855258439
     N     0.0200487614    0.0250791735    2.4702770701
     C    -0.1212988868   -1.0400761067    3.2732459817
     N    -0.3370350165   -0.6473311746    4.5484904624
     H    -0.4780752147   -1.2665275880    5.3434837180
     H    -0.4951265608    1.2784777433    5.5035178120
     H    -0.0520804219    2.1381116383    2.9072858393
     H    -0.0733439205   -2.0768151079    2.9739995328
     S     0.5491196347   -0.0493022138   -2.6748446614
     H     0.2512824782   -1.2298472198   -3.2542591419
     H    -0.3316758918    0.6742165265   -3.3949086834
