17
-2.2464277280490869e+03 frame 100   xyz file generated by TeraChem
    Fe     0.2893034157    0.0694598663    0.4274494133
     C     0.0275792312    2.0139558879    0.1524848848
     S    -0.0653329155    3.5449517593    0.0641993902
     C     2.3078819811    0.2090043052    0.2127363443
     S     3.8188926818    0.3202575364   -0.0110639056
     C     0.0329610548   -1.8600473127    0.1990630094
     S    -0.1072046808   -3.3841598103    0.0834377264
     C    -3.1557464419    0.0576358480   -0.5100223366
     O    -2.3488045779    0.0555490523    0.3817330471
     O    -4.4641155413    0.0508658823   -0.4901591902
     H    -4.8062301704    0.0394903906    0.4346362537
     C     0.0910321071    0.2367040019    2.4438868353
     S    -0.1114276468    0.3699894637    3.9561084101
     C     0.2661553201   -0.7471471095   -3.1437102087
     O     0.2943316602    0.0499953045   -2.2436149708
     O     0.2261179985   -0.5810383682   -4.4413156114
     H     0.2150812086    0.3761355741   -4.6775229926
