37
-2.0834759329844906e+03 frame 88   xyz file generated by TeraChem
    Co    -0.0797138800    0.1594204787   -0.0892734320
     O     0.0017879954    2.7461254274    0.2357952439
     C    -0.0913777471    3.4766876611   -0.9813331589
     C    -0.9064843903    3.2135705652    1.2265687272
     H    -0.7739569679    2.5721177653    2.0986134158
     H    -1.9432322889    3.1355560611    0.8752812245
     H    -0.6816435358    4.2596341687    1.4864094938
     H     0.6959148591    3.1105860379   -1.6423397707
     H     0.0583649339    4.5513759062   -0.7928893905
     H    -1.0680203078    3.3240331125   -1.4594939766
     O     2.1646287853    0.2109075186   -0.0354990724
     C     3.0045595446   -0.8895278236   -0.4008145123
     C     2.9261820289    1.3422550062    0.3901460635
     H     2.2139371038    2.1238025449    0.6504784398
     H     3.5634498814    1.6823234530   -0.4356551491
     H     3.5312289126    1.0763250311    1.2657119617
     H     2.3516210317   -1.7100050074   -0.6956922235
     H     3.6060249610   -1.1847933635    0.4670421581
     H     3.6467783324   -0.5969982909   -1.2405545456
     O     0.3945161329   -2.8895810453   -0.4706354444
     C    -0.5821118763   -3.3538825809   -1.3851424042
     C     0.3843356416   -3.6122143698    0.7487930905
     H     1.1597915145   -3.1836496980    1.3861884502
     H     0.5995383051   -4.6796900821    0.5721470516
     H    -0.5840658210   -3.5214459266    1.2604555073
     H    -0.4864445105   -2.7439858315   -2.2847791088
     H    -1.5965200023   -3.2381752798   -0.9760741797
     H    -0.4153386326   -4.4152763442   -1.6350464754
     S    -2.4691734080    0.3182594009   -0.4872160273
     C    -3.2889697129    0.1901038584    0.9872888251
     N    -3.9040684207    0.1255325922    1.9826973107
     S    -0.2096777258   -0.3365081192    2.2731238761
     C     1.3874475046   -0.6975611126    2.6894683859
     N     2.4774877108   -0.9819345304    3.0184594980
     S     0.1019413866    0.0863583691   -2.5639772685
     C     1.5792919898    0.8351411454   -2.8766247313
     N     2.5903303133    1.3800196787   -3.1201306576
