25
-6.1275044601150307e+02 frame 161   xyz file generated by TeraChem
    Fe     0.7785885948    0.1082959691    0.3537572959
     N     0.3938459737    2.0427462422    0.8719701383
     H     1.1354406930    2.6789938187    0.5637737024
     H    -0.4560271904    2.3977146981    0.4195978799
     N     2.6458604054   -0.4983738062   -0.1547685242
     H     3.2405689476   -0.7481899315    0.6413977328
     H     2.6149233490   -1.3580878716   -0.7177007737
     N     0.4896021641    0.4072477283   -1.9485579547
     H     0.3111085139    1.4086851357   -2.0276931654
     H     1.4818812880    0.2887747151   -2.1621030187
     N    -0.2237534878   -1.1859527452    1.5854170159
     H    -0.0523902793   -2.1592328436    1.3096399866
     H    -1.2335135828   -1.0682146646    1.4346645928
     C    -0.7401317512    1.3671779866    4.8825365680
     N    -1.4651357120    1.6996357466    5.7334986190
     C     0.1704587275    0.9518684203    3.8295796261
     H    -0.0808141526   -0.0388875022    3.3923570130
     H     1.1937406832    0.9042062283    4.2244074315
     H     0.1672594901    1.6301998694    2.9441830973
     C    -1.1660693482   -0.4076479180   -5.7849239778
     N    -1.0922486312    0.0840050282   -6.8612487004
     C    -1.2212798442   -0.9512677946   -4.4951326131
     H    -0.7815984179   -1.9487299845   -4.4075821591
     H    -2.2066654042   -0.8961507738   -4.0243671777
     H    -0.0613837398   -0.0529239223   -2.7033007669
