37
-2.2559568492113344e+03 frame 126   xyz file generated by TeraChem
    Mn    -0.0995265697   -0.0723844067   -0.1063798609
     C     0.9447333992    4.1260190527   -1.3621728385
     C     1.1599595873    2.7751273820   -1.3735366943
     N     0.3590584299    2.1715227711   -0.4181492394
     C    -0.3317802267    3.1396049722    0.1595064414
     N    -0.0056396403    4.3416050327   -0.3780798703
     H    -0.4498314757    5.2177957108   -0.1475797402
     H     1.3616888000    4.9311534548   -1.9472761633
     H     1.8202763998    2.1918109284   -2.0004986223
     H    -1.1031567505    3.0132658398    0.9063026862
     C     4.4086349550   -0.0701421213    0.3450327638
     C     3.2080963764    0.5830826752    0.3856110251
     N     2.1749830841   -0.3241215245    0.2627540268
     C     2.7388297919   -1.5127663187    0.1450889238
     N     4.0898633344   -1.4065127375    0.1977093336
     H     4.7405630293   -2.1672947779    0.0724954758
     H     5.4288327259    0.2786267044    0.3841549009
     H     3.0131524941    1.6414074925    0.4653501649
     H     2.1983542872   -2.4432335594    0.0352449263
     S    -0.4884377381   -2.7502226632    0.2220540601
     C    -0.8377040727   -2.9990442723    1.8503959163
     N    -1.0924613835   -3.1811378006    2.9840265538
     S    -2.8020342234    0.3138236272   -0.4682416281
     C    -3.1789823337    1.6568297559    0.4614013957
     N    -3.4215209504    2.5948077349    1.1329151002
     C    -0.0116545593    0.5229207052    4.3298017586
     C     0.5398319247    0.6877719578    3.0897411696
     N    -0.3734262862    0.3202570292    2.1192602583
     C    -1.4610555726   -0.0644429957    2.7641202369
     N    -1.2931560347    0.0569296950    4.0998383216
     H    -1.9410793190   -0.2879906198    4.7919281835
     H     0.3707242282    0.6904478034    5.3248056500
     H     1.5284673845    1.0312359441    2.8255398914
     H    -2.3600917331   -0.4358416887    2.2977102179
     S     0.2428317589   -0.6025618365   -2.7124393149
     C     1.8448971234   -0.1794064898   -2.9875391423
     N     2.9601359052    0.1397581155   -3.1887203502
