55
-1.5021303566919319e+03 frame 48   xyz file generated by TeraChem
    Co    -0.0125617711    0.0037811560    0.0190713821
     C     1.1758267603    4.1990778320    0.7593190026
     C     1.4311083320    2.8659728290    0.5826909307
     N     0.2427058624    2.1844646561    0.3712804974
     C    -0.7161710174    3.1011872157    0.4230225650
     N    -0.1934299177    4.3275622145    0.6558417769
     H    -0.7183769893    5.1889974712    0.7393797410
     H     1.8234378946    5.0431820400    0.9404424093
     H     2.3818946095    2.3571150355    0.5840651066
     H    -1.7725457532    2.9160570805    0.3070981970
     C     4.3821016086   -0.3421706988    0.0113629568
     C     3.1795478128    0.0045913349   -0.5419122095
     N     2.1520728872   -0.3081152900    0.3346907898
     C     2.7339374692   -0.8387690750    1.4031517201
     N     4.0770458237   -0.8774603101    1.2452383696
     H     4.7420938935   -1.2355814783    1.9190275798
     H     5.3962265545   -0.2598455476   -0.3483351723
     H     2.9847126794    0.4588869350   -1.5005893099
     H     2.2271355491   -1.2014726497    2.2838646994
     C     0.0835457171   -4.3758064053   -0.6313737314
     C     0.6653199951   -3.1541897664   -0.4247889563
     N    -0.3133285160   -2.1773626584   -0.3294610201
     C    -1.4718536290   -2.8080793439   -0.4782181447
     N    -1.2736546283   -4.1349642923   -0.6593162965
     H    -1.9982343596   -4.8295026612   -0.7908646501
     H     0.4978957732   -5.3644336102   -0.7563683942
     H     1.7128255609   -2.9113759685   -0.3442743481
     H    -2.4485206051   -2.3502540409   -0.4512492033
     C    -4.4273098538    0.4217137885    0.0340356158
     C    -3.2224333175    0.1499246008    0.6248353072
     N    -2.2000513300    0.3132254734   -0.2977732257
     C    -2.7870714915    0.6791573762   -1.4307673966
     N    -4.1288751077    0.7565987451   -1.2701637228
     H    -4.7971277594    1.0141053350   -1.9856822014
     H    -5.4386171037    0.4099520091    0.4108133043
     H    -3.0232734974   -0.1484026320    1.6423435491
     H    -2.2846011114    0.8926598817   -2.3614193199
     C    -0.7512666392   -1.2825462576    4.1964561627
     C    -0.6930198717   -1.5026159982    2.8466814526
     N    -0.3337477509   -0.3334007811    2.1943099879
     C    -0.1770734549    0.5789544036    3.1459271898
     N    -0.4198217584    0.0451549657    4.3653671875
     H    -0.3714826369    0.5386296588    5.2478711570
     H    -0.9915809809   -1.9288348649    5.0266897202
     H    -0.8749738953   -2.4178741171    2.3066442249
     H     0.1142245248    1.6067127392    2.9952617931
     C     0.7999992359    1.2887328024   -4.1393306868
     C     0.5833149290    1.5301177444   -2.8095687592
     N     0.3280090403    0.3369344334   -2.1509192727
     C     0.3923196211   -0.6105184493   -3.0786778361
     N     0.6743717051   -0.0762671311   -4.2893255717
     H     0.7852264193   -0.5927937636   -5.1527864832
     H     1.0271745407    1.9429460708   -4.9670558198
     H     0.6011463707    2.4723896430   -2.2856482866
     H     0.2545719659   -1.6675917622   -2.9125303868
