50
-1.0126885527308232e+03 frame 62   xyz file generated by TeraChem
    Fe     0.0004821234   -0.0040303221    0.1490449249
     O    -0.0479499299    2.1228165172    0.0283426855
     C     1.0165695232    2.8922116463   -0.5871297811
     C    -1.2324436078    2.9412112155    0.2149354807
     H    -1.9860058587    2.3153796644    0.6844534729
     H    -1.5878967699    3.2985962157   -0.7562817163
     H    -0.9842349797    3.7913377189    0.8564202370
     H     1.8883925532    2.2461487311   -0.6222255654
     H     1.2245075619    3.7731443944    0.0266512197
     H     0.7171904985    3.2006456454   -1.5934436418
     O     2.2102387546    0.0236862775    0.1506394246
     C     3.0510861786   -0.1986972897   -1.0075102007
     C     3.0138363762    0.2994907927    1.3250782221
     H     2.3241430916    0.3786532676    2.1604995031
     H     3.5657150076    1.2346976678    1.1876128221
     H     3.7189301437   -0.5215636041    1.4898108858
     H     2.3886564176   -0.3621975905   -1.8537241535
     H     3.6842404236   -1.0756184499   -0.8416298085
     H     3.6815846358    0.6788743737   -1.1847117664
     O     0.0493092480   -2.1306090260    0.0278108911
     C    -1.0152153076   -2.9001819136   -0.5874203587
     C     1.2336805179   -2.9490964469    0.2149632596
     H     1.9871117170   -2.3232728765    0.6846884496
     H     1.5894233633   -3.3066327168   -0.7560856993
     H     0.9851306457   -3.7990933856    0.8564811379
     H    -1.8870384789   -2.2541324465   -0.6228279067
     H    -1.2231859338   -3.7809310224    0.0266058726
     H    -0.7158248367   -3.2089239210   -1.5936426137
     O    -2.2090341738   -0.0315440994    0.1503145700
     C    -3.0497561622    0.1912216000   -1.0079213128
     C    -3.0128286726   -0.3086304034    1.3243143926
     H    -2.3233790695   -0.3875978272    2.1599660473
     H    -3.5638666986   -1.2442559603    1.1862595107
     H    -3.7186847848    0.5117334243    1.4891462699
     H    -2.3872676631    0.3576035073   -1.8535199844
     H    -3.6846747138    1.0666098622   -0.8407187657
     H    -3.6784604723   -0.6872543666   -1.1869788494
     O     0.0005088689   -0.0038688305    2.4192176404
     C    -0.0843176330    1.1872103585    3.2369659950
     C     0.0841028356   -1.1948043432    3.2372793888
     H     0.0314512016   -2.0459611260    2.5616432875
     H    -0.7531222225   -1.2265379638    3.9423092163
     H     1.0286112921   -1.2027949284    3.7910238892
     H    -0.0298890994    2.0382268616    2.5613053379
     H     0.7514520630    1.2185981678    3.9437201988
     H    -1.0299748610    1.1956694017    3.7887490539
     C     0.0014605454   -0.0039510717   -3.4361367531
     O     0.0004995833   -0.0034614231   -2.2148652804
     H    -0.9364533401    0.0636290905   -4.0102383748
     H     0.9402636180   -0.0719052847   -4.0087465340
