21
-6.2003048698700502e+02 frame 73   xyz file generated by TeraChem
    Cr    -0.0741175915   -0.1075760614   -0.0247586159
     O    -0.3650412559    1.8826802394    0.1536686157
     H    -1.2894238337    2.2114636743    0.1034840028
     H     0.1151476496    2.4970619093    0.7496581148
     O     1.8803221919    0.1864622662    0.3583007815
     H     2.4740988704   -0.5955777788    0.3592300572
     H     2.4308774928    0.9601319241    0.1108036123
     O     0.3573826708   -2.0528536032   -0.2638381446
     H     0.5150392743   -2.3987787520   -1.1700187668
     H     0.0096976035   -2.7948075773    0.2774251388
     O    -2.0502832777   -0.3035868603   -0.3239099133
     H    -2.4860783384   -0.5896244448   -1.1552191477
     H    -2.6404603130   -0.5431376672    0.4233302517
     C     0.0097543956   -0.4515873964    3.0124063007
     O    -0.5097500646   -0.4599457251    1.8829463107
     H     1.0647521345   -0.1849215813    3.1632464150
     H    -0.6143664965   -0.7190509540    3.8762987485
     C     0.2551420213    0.8839851340   -2.8912048251
     O     0.2021547399    0.0264460717   -1.9927930411
     H     0.1067856832    1.9520759972   -2.6820410292
     H     0.4557786033    0.5511669345   -3.9190128699
