28
-7.5059984753738718e+02 frame 45   xyz file generated by TeraChem
    Fe     0.0472085719    0.0944227119    0.1040509778
     C     0.5034433858    3.3655316866    0.6006050591
     N     0.4018528622    2.2250616767    0.4198910757
     C     0.6266073200    4.7985438543    0.8288902264
     H     0.2915397627    5.3475175116   -0.0573975112
     H     1.6705651704    5.0561181623    1.0356793950
     H     0.0088855990    5.0927541940    1.6839779938
     C     3.3134159868   -0.3742553113   -0.4364152082
     N     2.1795863763   -0.2228244777   -0.2520155945
     C     4.7376641201   -0.5644922737   -0.6688519897
     H     5.2633043699    0.3898717206   -0.5594848019
     H     4.9008937198   -0.9489311086   -1.6812262654
     H     5.1408026346   -1.2804511895    0.0551211260
     C    -0.5136974335   -3.1714835568   -0.3752873830
     N    -0.3121604968   -2.0409254235   -0.2158491482
     C    -0.7686069256   -4.5914934108   -0.5746778354
     H     0.1767068554   -5.1213904493   -0.7318988323
     H    -1.4096462943   -4.7364352811   -1.4506590593
     H    -1.2694842811   -5.0074090287    0.3059327788
     O    -1.9958728436    0.4600864144    0.4534032485
     H    -2.6254940442    0.4580068818   -0.2867955566
     H    -2.4625883174    0.1761465850    1.2570363850
     O     0.1773199039   -0.2291564287    2.2390279349
     H     0.5370138372    0.4591622328    2.8228808173
     H     0.4350894829   -1.0860015650    2.6175917785
     O    -0.4812562309    0.4520304835   -1.9694258513
     H    -0.3797755256   -0.2512007222   -2.6325702904
     H    -0.2406744289    1.2857222766   -2.4077702051
