15
-1.9803522431518786e+03 frame 134   xyz file generated by TeraChem
    Fe     0.4447170328   -0.0273240543   -0.3199999001
     C     0.1739577721    2.0578162417    0.0740287023
     S     0.2725747834    3.2406013592    1.0796702164
     C     2.3307659795    0.1653305962    0.0223096003
     S     3.8672247810    0.3305204338    0.1355564919
     C     0.2630126022   -2.0370445541   -0.5763913270
     S    -0.2333103972   -3.4895921738   -0.7825092301
     N    -2.3843207720   -0.1327220666    0.8785762271
     H    -2.7649189099    0.1245588010   -0.0226496213
     H    -3.0397013878   -0.3169735775    1.6348451878
     C    -1.0707143392   -0.2377314708    1.0463600560
     S    -0.2997137545   -0.6674808143    2.4615490013
     N     0.1689328412    0.2587001924   -2.2050940812
     H    -0.3951245365    1.0248936490   -2.5692372817
     H     0.5280504395   -0.2972310125   -2.9790930628
