9
-1.4170761894445982e+03 frame 101   xyz file generated by TeraChem
    Co     0.7376222520    0.1207605474    0.4475432606
     F     1.0661503321    1.8140769238    0.7420094128
     F     1.7322818308    0.1588570165   -2.1440009499
     F     1.5470507375   -1.4164335164    0.7046216341
     F    -2.0279902752   -0.7723376140    0.4325561522
     C    -1.1367853224   -0.2710778004    1.3174037825
     S    -1.5940416539   -0.0886801925    2.8780270966
     C     0.4561284490    0.1695466080   -1.6489028522
     S    -0.7804291651    0.2852954807   -2.7043365337
