19
-2.3967817325142860e+03 frame 45   xyz file generated by TeraChem
    Mn     0.1323596680   -0.1391066755    0.1067456469
     P    -0.4126987296    2.5655611757   -0.4334462869
     H    -1.0358103036    3.4661755746    0.4609914815
     H     0.4762073099    3.4769697977   -1.0487806889
     H    -1.4085975513    2.5446350970   -1.4307378459
     P     2.6336012850    0.2728508756   -0.0013262022
     H     2.9832621216    1.2927589450   -0.9036706072
     H     3.4411465175    0.6077216530    1.1081033537
     H     3.3457503040   -0.8169766113   -0.5319733321
     P     0.5323229540   -2.8997470537    0.5059727272
     H     1.7027247773   -3.6161991281    0.1642447488
     H     0.1931189870   -3.6176256523    1.6762248529
     H    -0.3602460335   -3.5283202939   -0.3857902799
    Cl    -2.0624524763   -0.4834123849    0.4018290272
     P     0.0368556920    0.2738667096    2.6080351816
     H     1.1507148499    0.6131866478    3.4075252639
     H    -0.8663080454    1.2911493004    2.9632178223
     H    -0.4852527692   -0.8166935941    3.3254502494
    Cl     0.4231831548   -0.4838039211   -2.0889911605
