31
-1.1132395087697344e+03 frame 121   xyz file generated by TeraChem
    Fe     1.0900147939    0.2507065331    0.0795868923
     F     0.1581165260    1.8257529951   -0.2000046932
     F     2.8468036841    0.5303729686    0.3662628275
     F     0.6228778090   -1.5563443731    0.1176744323
     O    -1.7397983942   -0.1769806965    0.0410406954
     C    -2.6881491685    0.7942733216    0.0258583219
     C    -3.9281214964    0.2287036590    0.0084721934
     C    -3.7185724540   -1.1950665446    0.0098556040
     C    -2.3684356454   -1.3799558487    0.0296464694
     H    -2.2909928482    1.7962925971    0.0260533664
     H    -4.8748641622    0.7525173536   -0.0066395501
     H    -1.7002595467   -2.2252791023    0.0375350121
     H    -4.4743660110   -1.9692577081   -0.0012955840
     O    -0.2869343268   -1.5899968383    3.8708135325
     C     0.1516739864   -2.4774334125    2.9249239844
     C     0.2367918191   -3.7232852502    3.4727849382
     C    -0.1741389056   -3.6017854036    4.8434184098
     C    -0.4791608339   -2.2874887129    5.0254498378
     H     0.3467521515   -2.0735893004    1.9323953973
     H     0.5564915903   -4.6207119770    2.9607830322
     H    -0.8274733510   -1.7104794824    5.8692259021
     H    -0.2328289282   -4.3852063637    5.5877718978
     O     0.2456265853    2.5398809084   -4.0497415647
     C    -0.5382554574    2.7919282447   -2.9555913055
     C    -1.6200708508    3.5324021037   -3.3303075857
     C    -1.5011843273    3.7537302355   -4.7441420922
     C    -0.3524202870    3.1295208141   -5.1233827338
     H    -0.1965033769    2.3862708317   -2.0049625262
     H    -2.4105586262    3.8760864776   -2.6772482244
     H     0.1583017439    3.0123369295   -6.0677019587
     H    -2.1791167558    4.3004176378   -5.3865368364
