25
-2.3337387566605521e+03 frame 93   xyz file generated by TeraChem
    Mn    -0.0795809870    0.7115237088    0.2037910883
     S    -0.3633602999    3.2121190622   -0.0624234491
     C    -1.2896465051    3.1605582584   -1.4743956101
     N    -1.9392492884    3.1261567501   -2.4507780143
     S     2.6529569049   -0.3071014060    0.2637036686
     C     3.2166535291   -0.3046326707   -1.3132705319
     N     3.6156654529   -0.3071691278   -2.4181238371
     S     0.4806817554   -2.3439637195    0.2069696861
     C     0.5074269323   -2.8851224327   -1.3751771803
     N     0.5121573086   -3.2601134277   -2.4898752079
     H    -4.2835472842    0.0418744289    2.6954787596
     H    -5.2154725121    0.8793424245    1.4021340136
     C    -4.5618147894    0.0345501445    1.6359305537
     N    -3.3564275269    0.1517838398    0.8927495759
     C    -2.2826211559    0.2808204080    0.4638931554
     H    -5.0647697997   -0.9006845293    1.3748595300
     S     0.3595746517    0.4005180989    2.7186061135
     C    -1.1803239131    0.2949897305    3.3942248266
     N    -2.2429937736    0.2128189291    3.8860371603
     H     0.6452564500   -1.5420690308   -4.3913820671
     H     0.3537870773    0.0737386441   -5.1360780269
     C     0.8639073361   -0.4721244456   -4.3382758081
     N     0.4172824202    0.0016997011   -3.0756592899
     C     0.1550983261    0.3034838876   -1.9851990203
     H     1.9452326804   -0.3172486063   -4.3881296965
