8
-7.1630191738952931e+02 frame 101   xyz file generated by TeraChem
    Mn    -0.0869366098   -0.6523335409    0.5631277064
     F    -0.4438250612    0.6451363648   -1.2498745864
     F     1.6602880891   -0.3793109032    0.3324509475
     F     0.0994493824   -2.2877700077   -0.2021901728
     F    -1.8250719774   -0.9858730560    0.8813653054
     F    -0.1042489759    0.6197894888    1.8701594213
     C     0.2646549554    0.9364507140   -2.8422362592
     O     0.4356895021    2.1039229719   -2.9507581202
