45
-1.3847231793611336e+03 frame 83   xyz file generated by TeraChem
    Cr     0.0344952607   -0.0357604500    0.0154302578
     O     0.0621210017    2.5307517291    0.0165392834
     C    -0.4104350574    3.4205234402   -0.9244097937
     C    -0.0471371043    4.6829202916   -0.5862309184
     C     0.6974306556    4.5841546644    0.6400837302
     C     0.7358600904    3.2678018210    0.9643070084
     H    -0.9597832010    2.9631033297   -1.7336286444
     H    -0.2812865438    5.5820313242   -1.1390640919
     H     1.1428799183    2.6978245423    1.7822093534
     H     1.1403678171    5.3933052403    1.2041981007
     O     2.3824924877   -0.0548973971   -0.2746223198
     C     3.3684826549   -0.0561329417    0.6887509664
     C     4.5849474244   -0.0999822941    0.0924564824
     C     4.3516015303   -0.1282792373   -1.3270695650
     C     3.0080484262   -0.1004460391   -1.5019462069
     H     3.0250703442   -0.0296809300    1.7093226785
     H     5.5405643443   -0.1124954398    0.5977205785
     H     2.3400529220   -0.1062342038   -2.3466397870
     H     5.0956108261   -0.1645952949   -2.1104069656
     O     0.0210754534   -2.4987364456   -0.1756907089
     C     0.0573205872   -3.4795475711    0.7940567467
     C    -0.0607415889   -4.6976686005    0.2088315384
     C    -0.1794845903   -4.4725747503   -1.2075569629
     C    -0.1252833917   -3.1307243453   -1.3915469333
     H     0.1647139774   -3.1042680877    1.8010425314
     H    -0.0643136368   -5.6500915773    0.7205759421
     H    -0.1681254983   -2.4599014609   -2.2332927247
     H    -0.2920820339   -5.2189026348   -1.9817391696
     O    -2.2554455458   -0.0748314196    0.5397386651
     C    -2.8445951943   -0.6655212033    1.6414254571
     C    -4.1882407447   -0.5064983852    1.5744713644
     C    -4.4634723369    0.2188953122    0.3623209968
     C    -3.2708682725    0.4571584063   -0.2348830483
     H    -2.1602380443   -1.1300372938    2.3339983857
     H    -4.9056446280   -0.8639573182    2.3000616428
     H    -2.9305025214    0.9100866476   -1.1561015284
     H    -5.4317978800    0.5188974600   -0.0133019121
     C     0.3177847039   -0.7065699850    2.6685329271
     O     0.4035318854    0.3310739580    1.9112101407
     O     0.6338487395   -0.4142446004    3.9400652335
     H     0.8364288205    0.5529369591    3.9980770360
     C    -0.9665774765    0.6429251151   -2.5648270217
     O    -0.0676779389   -0.0722359622   -1.9809601061
     O    -0.8719672184    0.5543737697   -3.8994831031
     H    -0.1228025817   -0.0536989423   -4.1222233515
