35
-9.2531944868169694e+02 frame 74   xyz file generated by TeraChem
    Fe    -0.0679272451    0.0805965361   -0.2005763058
     O    -0.0205543221    2.3296485599   -0.5623528677
     H    -0.0967446045    2.6912292513   -1.4620093078
     H    -0.2098488251    3.0612043396    0.0499588086
     O     2.1447445354    0.5210679606   -0.1745051305
     H     2.9415855803   -0.0013169454   -0.3685051728
     H     2.3597533601    1.4576743696   -0.3217211000
     O     0.1557911743   -1.9983300439    0.2294711737
     H     0.3602115246   -2.7140479663   -0.3955517036
     H     0.4819271763   -2.2582096556    1.1077559212
     C    -4.9519200825    0.2043820189    0.6577838448
     C    -4.3316826996    1.2452584873   -0.0357289304
     C    -2.9612960491    1.1825585113   -0.2537700849
     N    -2.1955770257    0.1531064744    0.1743498663
     C    -2.8066976223   -0.8547432933    0.8416943346
     C    -4.1713238581   -0.8638550553    1.1029410871
     H    -6.0210077431    0.2248228723    0.8461387743
     H    -4.8976282260    2.0948758513   -0.4026469835
     H    -2.4424487052    1.9724203126   -0.7834262280
     H    -2.1738168786   -1.6747272237    1.1601425830
     H    -4.6094423946   -1.6960539420    1.6436333280
     O     0.3802754940    0.1780467460    1.9791145816
     H    -0.2319274987    0.4606187260    2.6791982233
     H     1.2569843515    0.5334121242    2.2017222360
     C    -0.1920639671   -0.7673799131   -5.0984071249
     C     0.9018569933   -0.1109497717   -4.5307063741
     C     0.9109117957    0.1093453479   -3.1588289078
     N    -0.0941705516   -0.2816516718   -2.3434046515
     C    -1.1473345945   -0.9198355996   -2.9024562840
     C    -1.2333773121   -1.1799024908   -4.2655689085
     H    -0.2300555389   -0.9560500738   -6.1669402174
     H     1.7364407162    0.2231145798   -5.1380544968
     H     1.7480925003    0.6018619377   -2.6755189053
     H    -1.9383161334   -1.2270975710   -2.2260436786
     H    -2.1007046147   -1.6972079944   -4.6618186639
