20
-2.5341152331104945e+03 frame 63   xyz file generated by TeraChem
    Fe     0.2887413100    0.1509227702   -0.0582806280
     C     0.6727125833    2.3580755846   -0.3174452860
     S     0.9921814351    3.8364422885   -0.4524556118
     C     2.4807090588   -0.2047892792   -0.3731271760
     S     3.9702798715   -0.4041817197   -0.5882834962
     C    -0.0624002470   -2.0368475192    0.2758973882
     S    -0.3312245688   -3.5069257369    0.5446143113
     C    -1.9016741307    0.4923749103    0.2418879178
     S    -3.3904282970    0.6819452119    0.4722948790
     C     0.6446562578    0.4324941191    2.2060935243
     S     0.8763716461    0.6266174370    3.6914962391
     O     0.0283818094    0.0223941467   -2.2374966418
     C     0.2774047592   -1.1285491697   -2.9936587097
     C    -0.3834137407   -1.0523255986   -4.1684702469
     C    -1.0965535489    0.1998301891   -4.1757013696
     C    -0.8309338307    0.8171645033   -3.0049100770
     H     0.9529995990   -1.8426101935   -2.5519852318
     H    -0.3638266247   -1.7902809057   -4.9587563075
     H    -1.1061050572    1.7635552857   -2.5688938314
     H    -1.7178050183    0.5860162496   -4.9721968588
