8
-2.5380511618191808e+03 frame 204   xyz file generated by TeraChem
    Fe   -18.1689656687   -3.5187036680    9.3941814441
    Cl   -17.4328790441   -1.9262456110    7.7255987373
    Cl    57.5221797850    5.3492703888  -35.4513584248
    Cl   -17.7592915788   -5.8468439229    8.9066486700
    Cl   -20.5393217166   -3.1318105175    9.7121980919
    Cl   -17.0241586507   -3.1431386241   11.5084743779
     C   -15.7899846082   -0.2599849781   10.2098007953
     O   -14.7183745869   -0.6023591938   10.0114658148
