47
-2.0371811379570418e+03 frame 110   xyz file generated by TeraChem
    Fe    -0.8335132535    0.5582035888    0.3570832664
     C    -0.0694956104    5.6100277090   -0.2403489694
     C     0.8383586466    4.6841604829   -0.7520648357
     C     0.5766598498    3.3253425649   -0.5897600313
     N    -0.5143633752    2.8628402140    0.0445235928
     C    -1.3893450971    3.7596919208    0.5313585303
     C    -1.2061182696    5.1360257523    0.4118844901
     H     0.1022264285    6.6772268853   -0.3531942160
     H     1.7342439525    5.0011327338   -1.2769209348
     H     1.2379672695    2.5670295165   -0.9958639387
     H    -2.2679866498    3.3410178775    1.0112144313
     H    -1.9492150577    5.8148942899    0.8187603243
     C     6.0506532060   -1.7959535359   -0.9017137400
     C     5.9462630349   -2.0382916537    0.4683140227
     C     4.7561723031   -1.6997178299    1.1115163795
     N     3.7037857413   -1.1517060598    0.4875605894
     C     3.8135330222   -0.9246103339   -0.8317275421
     C     4.9629909001   -1.2294128870   -1.5641801497
     H     6.9607727199   -2.0459448496   -1.4406780842
     H     6.7651556627   -2.4800120118    1.0285264547
     H     4.6391077681   -1.8783171907    2.1796182810
     H     2.9380927273   -0.4919984068   -1.3117482077
     H     4.9948298862   -1.0269188491   -2.6304700161
     C    -1.1031670639   -4.4855510760    1.0222206234
     C    -2.2545047383   -3.7021592886    1.0675681773
     C    -2.1368364891   -2.3219857028    0.9122390114
     N    -0.9554244869   -1.7114697748    0.7166709392
     C     0.1525666359   -2.4720227537    0.6689588424
     C     0.1245238023   -3.8558975116    0.8206257978
     H    -1.1603603356   -5.5645468497    1.1390951612
     H    -3.2344527503   -4.1443442271    1.2176950255
     H    -3.0003702397   -1.6655382386    0.9394565219
     H     1.0884517758   -1.9496148278    0.4979197376
     H     1.0505373976   -4.4203433828    0.7741638736
    Cl    -3.1402440384    0.9096010177    0.8182866018
     C     1.2647653860    1.2015884135    4.8291927780
     C    -0.0973290840    1.4231106525    4.6285085589
     C    -0.6342724451    1.2042642698    3.3627453345
     N     0.1120664556    0.7856668256    2.3242312438
     C     1.4243097388    0.5613001826    2.5193189803
     C     2.0364157798    0.7603685742    3.7550684665
     H     1.7148298000    1.3660862388    5.8044610015
     H    -0.7405846707    1.7593485333    5.4354553133
     H    -1.6899402409    1.3545433076    3.1517685748
     H     1.9985780534    0.1968371718    1.6701220624
     H     3.0993479611    0.5692009740    3.8626688143
    Cl     0.3401706211    0.1524981830   -1.6362241509
