17
-2.2773098739722063e+03 frame 71   xyz file generated by TeraChem
    Cr    -0.0015067238   -0.0053027430   -0.0879763914
     S     0.4457083669    2.7280651131    0.4049120837
     C    -0.8202481086    3.3961982453    1.2920013690
     N    -1.6719080619    3.9054972489    1.9235640300
     S     2.4125160024   -0.4259804839   -0.5822738804
     C     2.9794836103    0.9120804613   -1.4479075855
     N     3.4315551136    1.7899677263   -2.0814146120
     S    -0.3458271894   -2.8176202527    0.3674523667
     C     1.0772771738   -3.5268719329    0.9218152496
     N     2.0444530692   -4.0599252982    1.3271813640
     S    -2.4606932864    0.3730345556    0.2105663390
     C    -3.2302900413   -0.8715842515   -0.6382792320
     N    -3.8290424845   -1.6835190149   -1.2371122723
     C     0.3238208593   -0.2548215081    2.0209311168
     O     0.5038263222   -0.3824861677    3.1391805189
     C    -0.3372482998    0.3485246970   -2.1312887802
     O    -0.5252129568    0.5778902798   -3.2314643325
