31
-2.5402961172546202e+03 frame 189   xyz file generated by TeraChem
    Fe     1.3147913310   -1.9254339068    0.5069197602
     S    -0.8060992355    5.4018980467    0.8466144381
     C    -1.5788941286    5.1139578081   -0.6144680703
     N    -2.1109694099    4.8933041762   -1.6437735026
     S     3.7957680084   -2.2975220199    0.9708669854
     C     4.6983992194   -1.9794809156   -0.4188853620
     N     5.3569939950   -1.7407156037   -1.3630251561
     S    -0.4665164274   -3.7344277460    0.4620452193
     C    -0.5263833796   -4.5810751608   -0.9926506200
     N    -0.5929229085   -5.1989266299   -1.9911731718
     C    -0.7836324798    1.6624230283   -0.6875007889
     C    -0.4144459857    0.3517440616   -0.8201431839
     N     0.4064452903   -0.0055300415    0.2375717463
     C     0.5214925764    1.0816679869    1.0013448979
     N    -0.1791424641    2.1047686086    0.4710598980
     H    -0.2560075777    3.0706354739    0.8225343411
     H    -1.3923148798    2.3278104257   -1.2826370156
     H    -0.6706455090   -0.3639914444   -1.5856540010
     H     1.0762414258    1.1371476345    1.9285243207
     S     0.9872112394   -2.1611589706    3.0384078528
     C     1.5762063205   -0.7160577560    3.6730394101
     N     1.9593522646    0.2993254964    4.1250678313
     C     2.4839209233   -2.3553245060   -3.7652943367
     C     1.7739196800   -2.8125783760   -2.6904002419
     N     1.7642355123   -1.8458364059   -1.6992797129
     C     2.4586184215   -0.8260454970   -2.1716797600
     N     2.8923670517   -1.0760776658   -3.4288447087
     H     3.5857002671   -0.5251321963   -3.9118008354
     H     2.7177232350   -2.7994462953   -4.7204069018
     H     1.2509838685   -3.7488335852   -2.5644540898
     H     2.6760224475    0.0867301097   -1.6389155907
