19
-1.6586889887512214e+03 frame 108   xyz file generated by TeraChem
    Cr     0.0950180894    0.0450506331    0.0204866676
     P    -0.2963579000    2.7196724098    0.5548566209
     H    -1.4716866868    2.9161171064    1.3179830485
     H     0.5994417531    3.1793683135    1.5497852313
     H    -0.3701700794    3.9439712571   -0.1633801935
     P     2.7654617143    0.2476246324   -0.5224934701
     H     3.0245868677    1.2104311530   -1.5270673104
     H     3.9660785256    0.4563527753    0.2080643812
     H     3.2279763509   -0.8635540570   -1.2669393729
     P     0.1871286413   -2.6495519133    0.8749001754
     H     1.1238483475   -2.8092918749    1.9244040627
     H    -0.9534964325   -2.9182666025    1.6682666347
     H     0.3216386432   -3.9677421030    0.3562879678
     P    -2.6438640649   -0.2739438674   -0.8952206779
     H    -2.6973088052   -1.4343321283   -1.7047922210
     H    -4.0003373722   -0.3410275983   -0.4661091000
     H    -2.8781408353    0.6354561367   -1.9551958172
     F    -0.1064938716    0.0574144167    1.8596638322
     F     0.0969660365   -0.1550544540   -1.8192582435
