14
-1.0786322644525526e+03 frame 967   xyz file generated by TeraChem
    Fe     0.0744493369    0.0039983037   46.4956072755
     C     0.3447607290    2.3631422477   46.8287032537
     N     0.4785241030    3.5219996495   46.9939744818
     C     1.9545447957   -0.1082498151   45.3369918407
     N     2.9424945676   -0.1626614252   44.7007326440
     C    -0.3461072561   -2.3330886441   46.1307741410
     N    -0.5507348601   -3.4799619292   45.9544316186
     C    -1.8887519470    0.4240576999   45.5333206184
     N    -2.9266504893    0.6459663720   45.0279570731
     C     0.3648633761   -0.3573545728   48.6638496196
     N     0.4954092157   -0.5451949284   49.8176275795
     S    -0.1544992761    0.1675246860 -170.9471716551
     C    -0.3306636731   -0.0070894259 -172.6051973959
     N    -0.4548127072   -0.1298624831 -173.7728979785
