19
-4.8353891121187758e+02 frame 84   xyz file generated by TeraChem
    Cr    -0.2615559064   -0.0242016068   -0.2844778566
     N    -0.3112798978    1.9095860811   -1.3560375434
     H     0.4563523576    2.5751503894   -1.2866602710
     H    -1.1912604767    2.4188539279   -1.2892104933
     N     1.6539580038    0.0377612544    0.2396681159
     H     2.2617736166    0.5542173735   -0.3972780506
     H     2.0723988167   -0.8854263624    0.3489110197
     N    -0.6960828617   -1.7748127112    0.5317900710
     H    -0.4206465168   -1.8501198874    1.5125857935
     H    -0.3207343051   -2.5972595059    0.0597981550
     O    -2.4890988248   -0.0423760595   -0.0201039585
     H    -2.2187074537   -1.0079478887    0.1725108259
     H    -2.6442958553    0.3135341738    0.8716602836
     O    -0.1525226458    0.9012840683    1.7484836927
     H    -0.1916086756    1.8715205079    1.7525926320
     H     0.8328198728    0.6716674773    1.4735034552
     O    -0.2775318757   -0.6542072744   -2.0229217828
     H    -0.0330445582   -1.5847679957   -2.1298511848
     H    -0.2767985914    1.4640632379   -2.2767302488
