23
-2.2566353225180883e+03 frame 106   xyz file generated by TeraChem
    Cr     0.0294225354    0.0340905202    0.0008459717
     P    -0.3410802536    2.6235863896   -0.2829818106
     H    -1.5052285752    3.1436756441    0.3158741761
     H     0.6691211492    3.4210180941    0.2894888390
     H    -0.4192446873    3.1271228520   -1.5966695117
     P     2.5740115358    0.4467539165   -0.5262103493
     H     3.3528259804    1.0391140225    0.4877450098
     H     3.3289649552   -0.6925816912   -0.8673872847
     H     2.8038037167    1.2965558676   -1.6257676333
     P     0.5044683577   -2.5180046918    0.3614500200
     H     1.7008522833   -2.8077093474    1.0460010018
     H    -0.4488896719   -3.2234288397    1.1217747421
     H     0.6237053215   -3.3227419071   -0.7894740391
     P    -2.5377801937   -0.2844160884    0.4303977896
     H    -3.0492800439   -1.5826391039    0.2348836709
     H    -3.0171687368    0.0331012166    1.7172223901
     H    -3.3789627658    0.4901495710   -0.3922003449
     S     0.4123229462    0.5360237835    2.4979878241
     H    -0.3562632155   -0.3434990694    3.1812524269
     H     1.5806580232   -0.0613109641    2.8285476480
     S    -0.2673305941   -0.3570007949   -2.5276228650
     H    -1.0166632108   -1.4767044990   -2.6551731838
     H    -1.2532156734    0.4799285427   -2.9257339625
