43
-2.0660766936401933e+03 frame 84   xyz file generated by TeraChem
    Fe     1.3410354673   -0.3915835886   -0.1048873289
     C     0.6261223839    4.3784985179   -0.9364427637
     C     1.9112448454    3.8511802553   -0.7953101800
     C     2.0558765524    2.4889111356   -0.5644380552
     N     0.9964696755    1.6510262262   -0.4715311915
     C    -0.2475750516    2.1683164783   -0.6069542628
     C    -0.4707160112    3.5191054291   -0.8391815612
     H     0.4820215324    5.4390710719   -1.1189030528
     H     2.7909361023    4.4821738916   -0.8638970402
     H     3.0391915033    2.0426197429   -0.4505250822
     H    -1.0825737441    1.4778673460   -0.5250157917
     H    -1.4871716332    3.8837620731   -0.9415923356
     C     6.2248329538   -1.1626589387    0.0046671586
     C     5.4483177082   -1.3348530696    1.1520704235
     C     4.0796827513   -1.1077533469    1.0779774471
     N     3.4577649689   -0.7281312149   -0.0651654801
     C     4.2213284795   -0.5680348102   -1.1735792010
     C     5.5958447526   -0.7710501656   -1.1783850010
     H     7.2971246696   -1.3310243863    0.0318584821
     H     5.8919396584   -1.6393558285    2.0940439049
     H     3.4520997326   -1.2417857521    1.9526754715
     H     3.7046630695   -0.2626131199   -2.0769953157
     H     6.1565000007   -0.6267013509   -2.0957898886
     C    -0.7098653320   -4.7486485865    0.7626418197
     C    -1.4898939968   -3.5904474137    0.7352270309
     C    -0.8732270954   -2.3709806818    0.4881854084
     N     0.4591849140   -2.2618943358    0.2723595850
     C     1.2097959750   -3.3877602943    0.2977242855
     C     0.6641035862   -4.6424132169    0.5386155953
     H    -1.1640544123   -5.7158445269    0.9551969605
     H    -2.5609646645   -3.6241880537    0.9032171829
     H    -1.4602213162   -1.4564809033    0.4604005358
     H     2.2732886848   -3.2619264189    0.1221427247
     H     1.3074197283   -5.5156916618    0.5513403058
     S    -3.7393902177    0.3858782820    0.0763119499
     H    -4.7181314800    0.1269606179   -0.8129875966
     H    -4.5830049738    0.8400742480    1.0238347681
     S     1.0645597694    0.0858433257    2.6186909880
     H    -0.2606316851    0.2960430311    2.7597438913
     H     1.3831329018    1.3893960842    2.7592987554
     S     1.0131341565   -0.7378868211   -2.8270336305
     H     0.6460616760   -2.0273704906   -2.9773424538
     H    -0.2247212525   -0.2526543041   -3.0547420541
