14
-9.6763558031234982e+02 frame 120   xyz file generated by TeraChem
    Mn    -0.6645088797    0.0107555166    1.2075686141
     C    -0.9655272160    1.9756565164    1.5472639998
     N    -1.1387499788    3.1171347656    1.7374648485
     C    -0.1403489348    0.3816457692   -0.8180603640
     N     0.1519543461    0.5722302108   -1.9347359454
     C    -0.3700532047   -1.9681940321    0.9503658175
     N    -0.1974873007   -3.1146440228    0.7919965586
     C    -2.6739476214   -0.3349562705    1.5335721438
     N    -3.8114982040   -0.5316659560    1.7296970111
     C     0.8403707516    0.0242464708    2.6139250408
     N     1.6870264442    0.0293021261    3.4226890460
     S     1.1717242872    0.4104093117   -5.0039247460
     H     0.7166551027    0.5561366458   -3.6950024571
     H     1.4162852652   -0.9075472164   -4.8431598727
