22
-1.9617695795327677e+03 frame 136   xyz file generated by TeraChem
    Co     0.2539431421   -0.0058658275    0.0346268196
     C     0.1660473138    3.0286732459   -0.6100189338
     O     0.7728863127    2.0177550561   -0.2740959995
     H     0.7320788651    3.9375322437   -0.8586635826
     H    -0.9280473580    3.0756588487   -0.6470177290
     C     3.1212339280   -0.9481194449    0.1534318724
     O     2.3533359205   -0.2704986569   -0.5080848560
     H     2.8013747922   -1.4476104437    1.0787028617
     H     4.1674107508   -1.0660553807   -0.1685940749
     C    -0.4957413255   -2.9582114698    0.7995255280
     O     0.2148527890   -2.2093073196    0.1317815585
     H    -1.5090819872   -2.6759126777    1.1078085061
     H    -0.1548562718   -3.9715422917    1.0484895911
     S    -2.2192251327   -0.2973441534   -0.3693516527
     C    -2.8106155755    1.2705766909   -0.3572017721
     N    -3.2124745895    2.3723699537   -0.3577911781
     S     0.6070587253    0.2702030636    2.4039426926
     C     0.1194448960   -1.2307753602    2.9758089612
     N    -0.2038273347   -2.3117915075    3.3018370426
     S    -0.2541868067   -0.3062359684   -2.5958763518
     C    -0.3500867748    1.2928045638   -3.0648069627
     N    -0.4089462499    2.4348573839   -3.3341602617
