29
-5.7717011386082640e+02 frame 62   xyz file generated by TeraChem
    Cr    -0.0655424167   -0.0111848722    0.0921311806
     N    -0.3507595738    2.0943600701    0.3077588622
     H    -1.3398713412    2.3478976313    0.2058471264
     H    -0.0695891776    2.4859169361    1.2141746894
     H     0.1381207622    2.6554237847   -0.3990495275
     N     2.0424055592    0.2249411689    0.3981303418
     H     2.3235318275    1.2063877484    0.5018438689
     H     2.4321083893   -0.2499571587    1.2211052505
     H     2.5955262543   -0.1194696196   -0.3950346612
     N     0.2372186737   -2.1122520474   -0.1530146685
     H     1.0488335247   -2.5099618567    0.3339885589
     H    -0.5644586534   -2.6815584129    0.1409564812
     H     0.3742306576   -2.3490212519   -1.1419111707
     H    -4.8839084585   -0.4345420400   -1.7565283163
     H    -4.9217069382   -1.7120840530   -0.4940886410
     C    -4.6778964589   -0.6671805286   -0.7076944816
     N    -3.2732514808   -0.4648522432   -0.4612428505
     C    -2.1433745820   -0.3017853294   -0.2642108259
     H    -5.2459575399   -0.0021994946   -0.0504834846
     N    -0.4105242663   -0.2579356603    2.1912247065
     H    -1.2861857141    0.1759052403    2.5059054735
     H    -0.4992252595   -1.2433342003    2.4635276925
     H     0.3143070567    0.1235830907    2.8104976701
     H     0.2899382853    1.7052298523   -4.7824831104
     H     1.5850168734    0.4610498239   -4.8014777432
     C     0.5405568976    0.6662787501   -4.5488352835
     N     0.3607649711    0.4586569176   -3.1347161465
     C     0.2148202343    0.2902555005   -1.9978212728
     H    -0.1233821162   -0.0165812363   -5.0869058391
