16
-1.6825528806609632e+03 frame 36   xyz file generated by TeraChem
    Co     0.0214708316    0.0187162271    0.0310732664
     C     0.3962931419    2.1704275577   -0.2622381114
     S     0.6845601055    3.6467268637   -0.4484910548
     C     2.1875828606   -0.3021232643    0.2977883615
     S     3.6711396366   -0.5069794117    0.5276233032
     O    -0.5306299075   -2.0529604303    0.1569704369
     H    -0.1882646185   -2.6013484486   -0.5719080516
     H    -0.5226354948   -2.6094585185    0.9555733069
     O    -2.0488920256    0.1986809712   -0.5208717421
     H    -2.5674987198   -0.6097180419   -0.3579760555
     H    -2.6315958715    0.9528779472   -0.3251280835
     C    -0.3721889490    0.3894289452    2.1651178820
     S    -0.6201451716    0.6808554628    3.6312903713
     O     0.1887727940   -0.5355633784   -2.0412379428
     H     0.9570717879   -0.3594537443   -2.6116550826
     H    -0.6030854247   -0.3156532701   -2.5647914374
