27
-1.9930555874343581e+03 frame 56   xyz file generated by TeraChem
    Co     0.0633847738   -0.0537751040   -0.0546392485
     P    -0.2467438999    2.5376715997    0.4279733083
     H    -1.4661684482    3.0116981464    0.9588242089
     H     0.6374017093    3.1750770184    1.3252680989
     H    -0.1245597227    3.4237894164   -0.6635557961
     P     2.6499493628    0.3848365057   -0.4905886367
     H     3.1350541798    1.7097773415   -0.5403636653
     H     3.6075393033   -0.1585256986    0.3932522166
     H     3.1857735194   -0.0874732383   -1.7076108465
     P     0.3980592383   -2.6552452315   -0.5121096918
     H     1.7008247363   -3.1869926350   -0.6314929775
     H    -0.1353984850   -3.5986261458    0.3924039855
     H    -0.1512314088   -3.1644451942   -1.7079830098
     P    -2.5274354136   -0.5043551378    0.3332653683
     H    -3.0933536539   -1.7121781583   -0.1287004712
     H    -3.0805863118   -0.4878372840    1.6318619629
     H    -3.4160024795    0.3985738115   -0.2897705722
     P     0.4409240617   -0.4022382920    2.5350738733
     H     1.7310091770   -0.2349858374    3.0835026437
     H    -0.2761049843    0.4263820168    3.4253602007
     H     0.1240524532   -1.6523856002    3.1093720003
     H    -1.2896256426   -0.2224856406   -5.0750404269
     H    -1.1048598318    1.5455563273   -4.8613799698
     C    -0.6365146477    0.5709223480   -4.7038462425
     N    -0.4231386793    0.3797246634   -3.2984866216
     C    -0.2507691854    0.2238323054   -2.1604702846
     H     0.3275403347    0.5330600087   -5.2169221755
