59
-1.5613397471959129e+03 frame 100   xyz file generated by TeraChem
    Co    -0.0021512992    0.0013939718    0.0078685379
     O    -0.0337391635    2.2235786467    0.0085033204
     C    -1.1515479500    3.0452652970   -0.1697553839
     C    -0.7813753984    4.3389241071   -0.0416089678
     C     0.6337575012    4.3541081251    0.2314775564
     C     1.0510486443    3.0692435924    0.2556264599
     H    -2.0746446809    2.5273155211   -0.3706543930
     H    -1.4324167421    5.1978472188   -0.1299393017
     H     1.9947498254    2.5736633664    0.4139371135
     H     1.2532995478    5.2267067890    0.3862017599
     O     2.2827417144    0.0103675528    0.3627572396
     C     2.9369535231    0.1988361445    1.5817192261
     C     4.2680989580    0.3060061670    1.3729745478
     C     4.4860891582    0.1818299129   -0.0447883884
     C     3.2757902519    0.0067614204   -0.6199568483
     H     2.3104101594    0.2192838241    2.4569097270
     H     5.0216543337    0.4522916780    2.1345370104
     H     2.9398452085   -0.1305762774   -1.6335532730
     H     5.4358148304    0.2179154478   -0.5604806973
     O     0.0294786085   -2.2207201040    0.0072344612
     C     1.1472513194   -3.0424384053    0.1854014771
     C     0.7770399911   -4.3360821662    0.0571755991
     C    -0.6380972601   -4.3512115676   -0.2158572304
     C    -1.0553571654   -3.0663330412   -0.2399044851
     H     2.0704076721   -2.5245429536    0.3861760602
     H     1.4280729385   -5.1950200041    0.1454245576
     H    -1.9990628761   -2.5707003144   -0.3980173025
     H    -1.2576894229   -5.2237697268   -0.3706109493
     O    -2.2870026662   -0.0074024766   -0.3478955263
     C    -3.2800409035   -0.0043133259    0.6348288924
     C    -4.4902983213   -0.1796345213    0.0596530592
     C    -4.2722838904   -0.3034916932   -1.3581356036
     C    -2.9411815065   -0.1958495117   -1.5668928879
     H    -2.9440920837    0.1331444715    1.6484110709
     H    -5.4400061340   -0.2161469082    0.5753472733
     H    -2.3146497935   -0.2160442819   -2.4420947664
     H    -5.0258174747   -0.4498109493   -2.1197132405
     C    -0.7640415732    0.0128509439    4.8972066746
     C    -0.5211928278   -1.1755624738    4.2083139105
     C    -0.3031319450   -1.1290027828    2.8365815333
     N    -0.3148909333    0.0260851785    2.1274645451
     C    -0.5480640873    1.1759986464    2.8070385631
     C    -0.7750590570    1.2087074985    4.1775438057
     H    -0.9384119486    0.0082410007    5.9688511769
     H    -0.4985814359   -2.1317429780    4.7201127790
     H    -0.1054072482   -2.0331424071    2.2781626892
     H    -0.5473163362    2.0904305194    2.2306539341
     H    -0.9552789062    2.1604774114    4.6658136927
     C     0.7599539835   -0.0098679621   -4.8815208558
     C     0.7706640968   -1.2057661496   -4.1619210665
     C     0.5435477664   -1.1730772331   -2.7914340374
     N     0.3105143719   -0.0231614837   -2.1118314009
     C     0.2990596132    1.1319665642   -2.8208742336
     C     0.5172733166    1.1785556791   -4.1925857587
     H     0.9344268716   -0.0052333674   -5.9531487644
     H     0.9507234933   -2.1575467446   -4.6502292919
     H     0.5425291485   -2.0875236688   -2.2150719369
     H     0.1014363069    2.0361202329   -2.2624411855
     H     0.4948975911    2.1347655645   -4.7043402620
