52
-1.4274989899574152e+03 frame 87   xyz file generated by TeraChem
    Co     0.0161021535   -0.0524548083    0.0412538658
     O    -0.0476676956    2.1508783177    0.0789097267
     C    -1.1975025427    2.9377183677    0.2153604524
     C    -0.9064988939    4.2176832031   -0.1017053298
     C     0.4869240625    4.2621716961   -0.4670851266
     C     0.9717425955    3.0076834388   -0.3513284526
     H    -2.0797250741    2.4140003041    0.5430265064
     H    -1.5958029027    5.0504552532   -0.0762360823
     H     1.9349230849    2.5462453979   -0.4941857548
     H     1.0489659039    5.1348914089   -0.7698850362
     O     2.1980139862   -0.0204276712   -0.0284291301
     C     3.0818287774    0.4586302491    0.9490586335
     C     4.3383688914    0.4600423443    0.4560692763
     C     4.2713034539   -0.0383640017   -0.8953900449
     C     2.9763477757   -0.3148993503   -1.1561924348
     H     2.6333754819    0.7322729771    1.8899559602
     H     5.2271296946    0.7734714382    0.9864290851
     H     2.4391195155   -0.7161769069   -1.9990667109
     H     5.1001514787   -0.1739056410   -1.5765931788
     O     0.0627776625   -2.1784173783   -0.1302513424
     C     1.1724079514   -3.0219777621    0.0332874273
     C     0.8192546271   -4.2884462181   -0.2703420639
     C    -0.5714470383   -4.2682906936   -0.6509950520
     C    -0.9949944689   -2.9909339235   -0.5603146588
     H     2.0794794618   -2.5374378913    0.3529024081
     H     1.4669737664   -5.1535911421   -0.2328874680
     H    -1.9317222916   -2.4833346583   -0.7213887791
     H    -1.1721666755   -5.1163535923   -0.9495251272
     O    -2.2091714440   -0.1028998163    0.3358401653
     C    -2.8664472862   -0.3640523590    1.5453908390
     C    -4.1886199743   -0.5153486978    1.3195898063
     C    -4.4025977113   -0.3468964099   -0.0943823110
     C    -3.1980528775   -0.1024695765   -0.6547454234
     H    -2.2502824084   -0.4014438975    2.4272788536
     H    -4.9406791889   -0.7209325171    2.0687673214
     H    -2.8630534767    0.1087141744   -1.6554622163
     H    -5.3480002904   -0.3966544331   -0.6171298630
     O     0.1912383257   -0.0929403465    2.1652433388
     C     0.3895723336   -1.2217241162    2.9748302787
     C     0.4540079777   -0.8390874088    4.2672804051
     C     0.2953783544    0.5933301630    4.3019010842
     C     0.1394115986    1.0130914400    3.0285363578
     H     0.4467348025   -2.1642554748    2.4567012226
     H     0.5979358156   -1.4944141007    5.1153521018
     H    -0.0141700725    1.9629479646    2.5448111132
     H     0.2986853927    1.2234013059    5.1808310504
     C    -0.3291974385    0.3492522259   -3.1811975866
     N    -0.2567049493    0.1552597131   -2.0412088783
     C    -0.4228357091    0.5904610455   -4.6131119306
     H    -0.1285922480   -0.3102392958   -5.1624773803
     H     0.2397261034    1.4168423733   -4.8923999585
     H    -1.4519953700    0.8534461157   -4.8804202776
