28
-1.7409944859660454e+03 frame 96   xyz file generated by TeraChem
    Co     0.2847377421    0.1002896939   -0.0534567557
     H     0.5553190884    5.2638091091    0.0788162608
     H    -1.2002395371    5.0943667850   -0.2179924941
     C    -0.3643314100    4.7749033370    0.4091108074
     N    -0.2049167895    3.3566578897    0.2850166465
     C    -0.0648173932    2.2096830211    0.1758951166
     H    -0.5655721414    5.0215490609    1.4542064785
     H     5.2212505315    1.1255336194    1.3270244799
     H     5.4772277122   -0.3547527993    0.3516782406
     C     5.0019569481    0.6288605772    0.3789808530
     N     3.5844393644    0.4635669664    0.2565912286
     C     2.4365673022    0.3303042357    0.1528981081
     H     5.3592380438    1.2386409891   -0.4545656404
     S     0.7022784030   -2.4773780273   -0.5636557447
     H    -0.4229661782   -2.9717492144   -1.1227556761
     H     0.5313658183   -3.1363175548    0.6021643355
     S    -2.3265893067   -0.3491794364   -0.6014013767
     H    -2.8128404768   -0.8498592521    0.5537604924
     H    -2.9359098366    0.8456051598   -0.4476733731
     H    -0.9969924338    0.3586393090    4.9772292415
     H    -0.8606852879   -1.4181752434    4.8103983228
     C    -0.3734920959   -0.4606189060    4.6113614300
     N    -0.1919807030   -0.3130203245    3.1977359465
     C    -0.0414647223   -0.1887458026    2.0531791097
     H     0.6038313652   -0.4319433493    5.0992416656
     S     0.7004008357    0.5019142240   -2.6755429892
     H     1.4149959355   -0.5650123743   -3.0930384557
     H    -0.4142506777    0.1357593618   -3.3450079388
