65
-1.6162078964389143e+03 frame 48   xyz file generated by TeraChem
    Co     0.0000727923   -0.0003562340    0.3127251567
     C     0.3666040824    4.9682980369   -0.3624995470
     C     1.4421863181    4.2368956924    0.1426268732
     C     1.3005642269    2.8641857834    0.3154309515
     N     0.1633978742    2.1940521186    0.0229376171
     C    -0.8707675862    2.9135910458   -0.4658266447
     C    -0.8106483885    4.2882421281   -0.6731719096
     H     0.4446570865    6.0410056517   -0.5108773302
     H     2.3806526602    4.7168993266    0.3994512588
     H     2.1184589417    2.2697187847    0.7024311207
     H    -1.7685515462    2.3581114641   -0.7039720287
     H    -1.6749314447    4.8087037536   -1.0721039194
     C     5.0212944858   -0.5126029771    0.1957614840
     C     4.2874013058   -0.8067510228    1.3449643191
     C     2.9089936505   -0.6183214579    1.3295022911
     N     2.2387135779   -0.1558229126    0.2523908321
     C     2.9594299125    0.1244799851   -0.8564907518
     C     4.3392184896   -0.0394496806   -0.9257559089
     H     6.0981606356   -0.6496089379    0.1741486371
     H     4.7693924542   -1.1788151266    2.2429393495
     H     2.3078808175   -0.8446047962    2.2012302988
     H     2.4064651432    0.4904355943   -1.7130246284
     H     4.8625115058    0.2003453849   -1.8454211532
     C    -0.3655295062   -4.9691293224   -0.3624516139
     C    -1.4417479410   -4.2375905861    0.1411193907
     C    -1.3003945127   -2.8648348530    0.3137985749
     N    -0.1628609538   -2.1947493404    0.0225961728
     C     0.8719441643   -2.9144049411   -0.4646434343
     C     0.8121012874   -4.2891011512   -0.6717380472
     H    -0.4433805165   -6.0418718962   -0.5106861166
     H    -2.3805429093   -4.7175434935    0.3968329617
     H    -2.1187799417   -2.2703101010    0.6996587012
     H     1.7700003122   -2.3589404774   -0.7017762758
     H     1.6769076653   -4.8096335879   -1.0694396163
     C    -5.0211958571    0.5139523990    0.1927993619
     C    -4.3387522600    0.0399130078   -0.9281197070
     C    -2.9591037869   -0.1247877777   -0.8579587045
     N    -2.2388444061    0.1555214918    0.2512187496
     C    -2.9095022106    0.6188289736    1.3277379824
     C    -4.2878078316    0.8081222496    1.3423137798
     H    -6.0979645169    0.6516061329    0.1704898489
     H    -4.8616393978   -0.1999654328   -1.8479950506
     H    -2.4058786599   -0.4913710671   -1.7140442094
     H    -2.3088068653    0.8450643627    2.1997670157
     H    -4.7701011370    1.1808418506    2.2398552352
     C    -0.0029434238   -0.0006321490    5.3470558935
     C     0.2711380032    1.1673523044    4.6345569710
     C     0.2647215131    1.1238045888    3.2441992422
     N    -0.0008972388   -0.0006685139    2.5445628141
     C    -0.2674779460   -1.1251301313    3.2438303330
     C    -0.2759403740   -1.1686354241    4.6341831458
     H    -0.0037594072   -0.0006134578    6.4328063159
     H     0.4878048036    2.1010404123    5.1427773653
     H     0.4746309423    2.0115212728    2.6598497698
     H    -0.4765340572   -2.0128817334    2.6592338470
     H    -0.4933516707   -2.1023137719    5.1421019586
     O    -0.0000955592    0.0003992093   -2.2888117789
     C     0.2816839707    1.0714711868   -3.1258673173
     C     0.1860929671    0.6936114261   -4.4229203641
     C    -0.1796461043   -0.6952398679   -4.4227083830
     C    -0.2793087848   -1.0716217041   -3.1255351361
     H     0.5111126713    2.0031302537   -2.6375777933
     H     0.3523129117    1.3235458617   -5.2857303779
     H    -0.5104126198   -2.0027184021   -2.6369605826
     H    -0.3432454454   -1.3261279936   -5.2853208215
