24
-2.3516800664894540e+03 frame 69   xyz file generated by TeraChem
    Co     0.0924275800    0.1866259285   -0.1074177859
     P    -0.2925767522    2.7703517717    0.2085791446
     H    -0.2133220009    3.4560655253    1.4443915633
     H     0.5501836092    3.6229454745   -0.5379299418
     H    -1.5290179359    3.2981780227   -0.2242974436
     P     2.6603800050    0.5949863545    0.2693855164
     H     3.2037629470    1.7192033730   -0.3893620385
     H     3.3247031711    0.7542925338    1.5098524115
     H     3.5148871005   -0.3826754808   -0.2853778213
     P     0.5141097880   -2.4094971573   -0.3638573731
     H     1.4105631809   -2.8197739951   -1.3705454057
     H     1.0806655536   -3.1228437504    0.7205090327
     H    -0.5429781380   -3.2986658466   -0.6490221225
     P    -2.4474955268   -0.2597016740   -0.5297634949
     H    -2.6954700164   -1.0066530676   -1.6991758462
     H    -3.3072067243   -0.9516985015    0.3560056073
     H    -3.2894453846    0.8438284945   -0.7914219839
     P    -0.3225270611   -0.1974984302    2.5091202739
     H     0.7510124040   -0.1313777785    3.4271706588
     H    -1.2065658021    0.6631261313    3.2003160316
     H    -0.8731882772   -1.4214161262    2.9534784002
     S     0.4550718348    0.6429896575   -2.4192355435
     C    -0.1899561923   -0.7724794519   -3.0752122864
     N    -0.6512216982   -1.7772709141   -3.4605415747
