25
-7.5299298240661574e+02 frame 44   xyz file generated by TeraChem
    Co    -0.1401814485    0.1293051365   -0.0750017677
     O    -0.0519121759    2.2707070328   -0.3411525749
     H     0.3649418497    2.6923722417   -1.1119450510
     H     0.1601247193    2.8166528044    0.4357940422
     O     1.9011427440   -0.1977727642    0.5876145506
     H     2.1593736379   -1.1229345030    0.7400790689
     H     2.7061944181    0.2906009763    0.3460361637
     O    -0.2748343500   -1.9998729683    0.3005225900
     H    -0.5409338695   -2.5676218187   -0.4434520524
     H    -0.7002106324   -2.3732086523    1.0923392872
     O    -2.2366146464    0.4995219575   -0.2357842584
     H    -2.8895526763   -0.0140934411   -0.7406846553
     H    -2.4366490594    1.4410356365   -0.3813816240
     O    -0.4074822364    0.6274877486    1.9708385367
     H    -1.2777928142    0.6810436927    2.4014082552
     H     0.2557946087    0.4249843833    2.6519396761
     C    -0.0099813889   -0.1098148261   -4.3420278389
     C    -0.5383547213    0.3254825845   -3.1596147365
     N     0.1769738599   -0.2265709811   -2.1030908708
     C     1.1274923494   -0.9847184880   -2.6561286225
     N     1.0389554270   -0.9352659093   -3.9975961051
     H     1.6473877277   -1.4219376928   -4.6475730440
     H    -0.2795434932    0.0864199975   -5.3689121230
     H    -1.3766346130    0.9870432849   -3.0041553882
     H     1.8758532498   -1.5558771967   -2.1274572924
