25
-1.0147486439113429e+03 frame 148   xyz file generated by TeraChem
    Co     0.2235782343    0.2126918534    0.0075943319
     C    -0.2466398298    3.1218532803   -1.0478333891
     O     0.1607888712    2.3487800539   -0.1395226036
     O    -1.4260544531    2.6203135267   -1.6689718503
     H    -1.7308208261    1.8542647995   -1.1205900126
     C     3.0897116799   -0.4331474749   -0.9256803636
     O     2.3322469372    0.1538525564   -0.0941596326
     O     2.5096390477   -1.6135158596   -1.4191551615
     H     1.7022073153   -1.8076317949   -0.8646203569
     C     0.1557862131   -2.6382566979    1.2221875698
     O     0.1198094670   -1.9192245489    0.1664098455
     O    -0.8290819786   -2.2887998131    2.1418065107
     H    -1.5117520537   -1.6489789942    1.7506608109
     C    -2.6984217250   -0.2975465918    0.9576261429
     O    -2.0246512311    0.2849446118    0.0738427602
     O    -4.0323421094    0.0917953395    0.9270330033
     H    -4.0832282537    0.7583652910    0.1957605204
     N     0.5104766503    0.4308545404    2.1337325870
     H     0.1254365773    1.2988088151    2.4926370601
     H     0.1143883206   -0.3853397361    2.6002988858
     H     1.5244990673    0.4312908755    2.2096656599
     N    -0.0533442692   -0.1034319577   -2.1273993548
     H    -0.3339889155    0.7749406691   -2.5583168384
     H     0.8269704252   -0.4603770975   -2.4938294873
     H    -0.7834999796   -0.8018991575   -2.2304538843
