39
-1.3981952089489287e+03 frame 111   xyz file generated by TeraChem
    Co     0.0942468355    0.4643296262    0.1046822949
     C    -1.7518379488    2.7856639380   -0.9813955081
     O    -0.8008824508    2.3171569499   -0.3062122548
     O    -1.8973877562    4.1498574798   -0.7422246221
     H    -1.1902295091    4.3567977791   -0.0798927479
     C     3.2344004870    0.9752256692   -0.3785307557
     O     1.9974279252    1.1144617530   -0.1394342052
     O     3.6568237279   -0.3484796266   -0.3602691285
     H     2.9099260330   -0.9634176939   -0.0876597257
     C     1.3647540608   -2.2771446782    0.2504949772
     O     0.2697822447   -1.6583674214    0.2852274014
     O     1.1885934170   -3.6145207760    0.5751368876
     H     0.2225394925   -3.6937876043    0.7848118177
     C    -4.9127050977   -1.0167794157    0.0100365283
     C    -4.5021768846    0.0854656351    0.7547869644
     C    -3.1440810821    0.4210543238    0.7835849144
     N    -2.2177550593   -0.2948605694    0.1293822782
     C    -2.6128132704   -1.3614766153   -0.5735524087
     C    -3.9468714024   -1.7606416473   -0.6701395601
     H    -5.9645191523   -1.2969333522   -0.0378810272
     H    -5.2157989604    0.6900302552    1.3087308944
     H    -2.7567290473    1.2314970552    1.3956397017
     H    -1.8170784950   -1.9162091375   -1.0614768867
     H    -4.2139611074   -2.6343826993   -1.2602346908
     C    -0.9081068939    1.1635216115    2.9150638484
     O     0.0062126849    0.7178239991    2.1773642240
     O    -0.4816352745    1.2027556885    4.2438608250
     H     0.4508198516    0.8666393153    4.2072017625
     C     0.2010405296   -0.4855009300   -4.9308669379
     C     1.2079415725   -0.9464711199   -4.0836378069
     C     1.1349203966   -0.6441906306   -2.7224181312
     N     0.1266031250    0.0671428037   -2.1969943996
     C    -0.8338912769    0.5291541731   -3.0118197077
     C    -0.8338795313    0.2730228463   -4.3858598088
     H     0.2291673444   -0.7042364690   -5.9978819209
     H     2.0458924789   -1.5265825280   -4.4611827443
     H     1.9064148463   -0.9585006990   -2.0276786558
     H    -1.5856298983    1.1646851823   -2.5365376745
     H    -1.6309943125    0.6731833221   -5.0079392460
