49
-1.3240166622348634e+03 frame 59   xyz file generated by TeraChem
    Co    -0.0019306931    0.0014168566   -0.0034109427
     C     0.7464026056    4.9720730003    1.0331650409
     C     0.9044941819    4.4642213016   -0.2551294736
     C     0.6961721013    3.1032751353   -0.4721958728
     N     0.3494741755    2.2532611855    0.5101495616
     C     0.1982913320    2.7478627374    1.7509739639
     C     0.3863364423    4.0948581545    2.0548624431
     H     0.9002569197    6.0284807615    1.2369396009
     H     1.1830758712    5.1047308652   -1.0861796496
     H     0.8019708336    2.6672574801   -1.4604544864
     H    -0.0751421483    2.0286757528    2.5165155879
     H     0.2511194780    4.4391707765    3.0754840010
     C     5.0586940389   -0.7363138489    0.4298441807
     C     4.2233677076   -0.7242570383    1.5456301169
     C     2.8567697701   -0.5235057458    1.3604604943
     N     2.3041467011   -0.3403738707    0.1483697232
     C     3.1143641641   -0.3520218562   -0.9242857003
     C     4.4910042492   -0.5461883488   -0.8289577393
     H     6.1289675375   -0.8906134454    0.5387159678
     H     4.6150262393   -0.8680771812    2.5478287006
     H     2.1681158468   -0.5108205814    2.1990888914
     H     2.6290368663   -0.1938375493   -1.8819888808
     H     5.0974878321   -0.5453844065   -1.7293483991
     C    -0.7484984269   -4.9693879646   -1.0395695579
     C    -0.9086450277   -4.4611932649    0.2483337623
     C    -0.7009672206   -3.1001355544    0.4653062335
     N    -0.3530267006   -2.2503325751   -0.5167885001
     C    -0.1999217437   -2.7452608122   -1.7572525769
     C    -0.3871664288   -4.0923932422   -2.0610086214
     H    -0.9017657866   -6.0258980163   -1.2432541535
     H    -1.1882686399   -5.1015130708    1.0791796375
     H    -0.8082525438   -2.6638599849    1.4532893575
     H     0.0743684216   -2.0262080451   -2.5226139552
     H    -0.2503742883   -4.4369709664   -3.0813302630
     C    -5.0626000930    0.7387534404   -0.4367516557
     C    -4.2273540023    0.7260853748   -1.5525910264
     C    -2.8607027740    0.5257669420   -1.3673626107
     N    -2.3079430656    0.3436364912   -0.1551748528
     C    -3.1181079284    0.3558319018    0.9175195968
     C    -4.4947942151    0.5496409051    0.8221470003
     H    -6.1329149740    0.8927344867   -0.5456651609
     H    -4.6191033912    0.8691034383   -2.5548692900
     H    -2.1721116446    0.5126348842   -2.2060324455
     H    -2.6326975819    0.1983581791    1.8752950984
     H    -5.1012092536    0.5493262714    1.7225844844
     C    -0.2613888016   -0.3625587869    2.0527356254
     N    -0.4360655708   -0.5298767483    3.1994104874
     C     0.2572358432    0.3654894971   -2.0595558452
     N     0.4319714696    0.5329942514   -3.2061950251
