49
-1.3302569467583949e+03 frame 55   xyz file generated by TeraChem
    Co    -0.0108033897   -0.0122241662   -0.0204858067
     O     0.0593929032    2.1911829333   -0.0242363316
     C    -1.0352985637    3.0520171258    0.0641133222
     C    -0.6175252382    4.3304479139   -0.0573436963
     C     0.8116881877    4.2942411351   -0.2375290847
     C     1.1858754516    2.9964272863   -0.2150748294
     H    -1.9874415756    2.5719932987    0.2171908275
     H    -1.2435112110    5.2112941900   -0.0220848958
     H     2.1189345809    2.4682870877   -0.3132789463
     H     1.4693204546    5.1426640689   -0.3673811621
     O     2.1898633496   -0.0009555339   -0.0322236617
     C     3.0612713618   -0.0001323622    1.0648546484
     C     4.3193619760   -0.2486018057    0.6405462056
     C     4.2637356802   -0.4224606508   -0.7884182675
     C     2.9745426408   -0.2698192460   -1.1589121034
     H     2.6038910226    0.2081862837    2.0178557761
     H     5.2008826461   -0.2992149224    1.2648250327
     H     2.4416506889   -0.3066345354   -2.0940012426
     H     5.0943640489   -0.6330401578   -1.4478002121
     O     0.1172525250   -2.1596692236   -0.1275013897
     C     1.1603367390   -2.9676737609    0.3415841224
     C     0.9847530886   -4.2297479085   -0.1023984423
     C    -0.2160271146   -4.2398024568   -0.9009136551
     C    -0.7086039466   -2.9833522581   -0.8987393702
     H     1.9005051153   -2.4685477905    0.9459392861
     H     1.6304732466   -5.0717192566    0.1054390418
     H    -1.5663600735   -2.5017600717   -1.3373750744
     H    -0.6471432664   -5.0915777403   -1.4086360714
     C    -3.2464502149   -0.3742538794    0.4874837429
     N    -2.1246626468   -0.2274282953    0.2387687644
     C    -4.6555649726   -0.5620098807    0.8011396959
     H    -4.7684105881   -1.3754501919    1.5256029205
     H    -5.2116497535   -0.8107533298   -0.1087999039
     H    -5.0660608124    0.3578676944    1.2310242892
     O     0.0467005488    0.0233813831    2.1524255167
     C    -0.3289795692   -1.0176970546    3.0055299364
     C    -0.3227492570   -0.5792575808    4.2824837019
     C     0.0671203631    0.8083051377    4.2559049808
     C     0.2793995464    1.1412128130    2.9647376718
     H    -0.5308656004   -1.9601350784    2.5236884610
     H    -0.5608489997   -1.1677109104    5.1578057274
     H     0.5656982384    2.0395943679    2.4437708424
     H     0.1717624281    1.4675934570    5.1065752731
     C    -0.4409285298    0.4364217256   -3.2365677424
     N    -0.2633125943    0.2243169667   -2.1119650818
     C    -0.6615344773    0.7023686149   -4.6504311991
     H     0.2662256223    1.0577401492   -5.1111532238
     H    -1.4338151041    1.4701885655   -4.7661225242
     H    -0.9855242929   -0.2133403440   -5.1560748326
