24
-7.7343631308304589e+02 frame 108   xyz file generated by TeraChem
    Co    -0.0336352431   -0.0091389262    0.1445846871
     C     0.1594721454    3.0684398422    0.0115398412
     O     0.3247395107    2.1156842249    0.7543354904
     H     0.3258928969    4.0949847280    0.3737326523
     H    -0.1545261508    2.9196487810   -1.0331732274
     C     2.9923995696   -0.4869996996   -0.0692193993
     O     2.0674194053   -0.3615801553    0.7163485034
     H     2.8214732837   -0.4348534173   -1.1551390640
     H     4.0166770099   -0.6583696388    0.2957655172
     C    -0.3668176168   -2.7934436253   -1.0366098809
     O    -0.4543153544   -2.1685325824    0.0074793807
     H    -0.0176194737   -2.3013911619   -1.9570546157
     H    -0.6342020495   -3.8607583180   -1.0704727247
     C    -3.1396231592    0.4875789402    0.9651823915
     O    -2.3075109204    0.1359501382    0.1495487861
     H    -2.8540936817    0.8202786713    1.9758023400
     H    -4.2122283540    0.4774734855    0.7134353497
     C     0.2184526113   -0.5796840847    3.1843128661
     O    -0.5008080687   -0.2473061328    2.2561869595
     H    -0.1888813318   -0.6440825996    4.2047011940
     H     1.2803647111   -0.8207677353    3.0348583515
     N     0.2057445799    0.2937374629   -1.6883781917
     H    -0.5007761148    0.0735399990   -2.3879570047
     H     0.8904847355    0.9009205195   -2.1346368484
