15
-2.6882646868633574e+03 frame 0   xyz file generated by TeraChem
    Co     0.0759200803    0.0436109269   -0.0688321397
     C     0.3069011357    2.1496649782   -0.5321793783
     S     0.5068370583    3.6101949038   -0.8861596680
     C     2.2026073295   -0.2264227563   -0.4981353772
     S     3.6861521761   -0.3970844551   -0.7597109031
     C    -0.3264009512   -2.0382050942    0.2203757491
     S    -0.5600841329   -3.5213882849    0.4381059537
     S    -2.6116417923    0.3920712607    0.1985970826
     H    -2.7762017746    1.6255524943    0.7218974053
     H    -2.9260183503   -0.2454870350    1.3459960275
     C     0.3735482786    0.4767676414    2.0576738494
     S     0.6034161004    0.7735589361    3.5267649693
     S    -0.4298016525   -0.2942273587   -2.7281621684
     H     0.3945110755   -1.2915602220   -3.1137404380
     H    -1.5413998182   -1.0589443195   -2.7785967143
