43
-9.1761203406281084e+02 frame 45   xyz file generated by TeraChem
    Co     0.0832689262   -0.0272177230    0.1693001607
     O     0.0986404261    2.1229090721    0.0233961694
     C     1.2667696313    2.9314608108   -0.2583060822
     C    -1.0606241061    2.9649040989    0.2456552974
     H    -1.9094131771    2.3043958532    0.3990460001
     H    -1.2301073632    3.5956605550   -0.6325374491
     H    -0.8985116786    3.5937971665    1.1261092506
     H     2.0986548211    2.2470286318   -0.3930060360
     H     1.4633872572    3.6025610544    0.5840097250
     H     1.0991029735    3.5239644519   -1.1634810355
     O     2.2905896310   -0.0252804401    0.1906980576
     C     3.1165773143   -0.2295500262   -0.9821775008
     C     3.1095723575    0.1814550519    1.3698218298
     H     2.4397968741    0.2022949255    2.2250962656
     H     3.6561432491    1.1257006697    1.2837102627
     H     3.8181610467   -0.6460514471    1.4743308812
     H     2.4435236996   -0.3278742774   -1.8307162319
     H     3.7151092161   -1.1375720809   -0.8623318870
     H     3.7800769585    0.6297680708   -1.1246496918
     O     0.0601529041   -2.1556539843   -0.0189135911
     C    -1.1027783184   -2.9704688579   -0.3136546621
     C     1.2171664791   -2.9913265349    0.2426337434
     H     2.0418035351   -2.3236535620    0.4729406180
     H     1.4446109390   -3.5915500128   -0.6435136961
     H     1.0090596274   -3.6492491175    1.0918779914
     H    -1.9311036128   -2.2893369769   -0.4854170482
     H    -1.3199631891   -3.6260956782    0.5355670277
     H    -0.9087219800   -3.5791362973   -1.2025808369
     O    -2.0659623280   -0.0133611052   -0.1842536666
     H    -2.3487741985    0.1321101873   -1.1030905763
     H    -2.8449299148    0.0662984441    0.3911506533
     O    -0.1294021613    0.0019965765    2.2572807794
     C    -0.7555624471   -1.0763703782    2.9996481093
     C     0.0680760328    1.1648453117    3.1022182889
     H     0.5576362811    1.9270193740    2.5012224928
     H     0.6961939966    0.8897576992    3.9543905037
     H    -0.9002981020    1.5289621455    3.4592306298
     H    -0.8339554484   -1.9257150969    2.3263322075
     H    -1.7454659084   -0.7651518055    3.3485055672
     H    -0.1265118150   -1.3347625327    3.8562579025
     O     0.0442765792   -0.0008882327   -2.0680419330
     H     0.0921061690   -0.7886031295   -2.6374410991
     H     0.2775519736    0.7577785674   -2.6311131718
