13
-2.4018731011771906e+03 frame 77   xyz file generated by TeraChem
    Co    -0.0096356102   -0.0059148946    0.0157647841
     C     0.3000674267    2.0984160887    0.3716372337
     S     0.4925939814    3.6143088547    0.3436382362
     C     2.0953820772   -0.3585063346    0.3067759839
     S     3.6043728137   -0.6027370334    0.2897383592
     C    -0.3569537712   -2.1099036217   -0.3902088218
     S    -0.5572042795   -3.5035002691   -0.9821581696
     C    -2.1301300714    0.3289032944   -0.3702393117
     S    -3.5121231269    0.5902961728   -0.9647438340
     C    -0.4201021993   -0.3443908902    2.1926794257
     S    -0.7137579193   -0.5791657071    3.6722482006
     O     0.1817245551    0.2395454012   -1.8416874863
     H     1.0257504122    0.6326465452   -2.1233314657
