34
-1.2077291267979331e+03 frame 107   xyz file generated by TeraChem
    Co    -0.0692417993   -0.0737448956    0.1417146208
     H     0.0536824878    5.0259231617   -1.0475572593
     H    -1.6413150508    4.6603774439   -1.4843131199
     C    -0.8780844880    4.5673285287   -0.7080849113
     N    -0.6468278455    3.1802930144   -0.4433764319
     C    -0.4563232074    2.0532061648   -0.2361264413
     H    -1.2190094152    5.0541680814    0.2087456489
     H     4.9978824776    1.2606092250   -0.0504817897
     H     5.1044501020   -0.3910746318   -0.7285660695
     C     4.5837385722    0.5676635563   -0.7866707331
     N     3.1947999115    0.3644448780   -0.5089526272
     C     2.0658860078    0.2037265496   -0.2864217544
     H     4.6884608674    0.9862403040   -1.7905990889
     H     1.2238477172   -4.9014683263    1.6712193564
     H    -0.1971760301   -5.2837271721    0.6543050321
     C     0.7535975922   -4.7471547786    0.6971499628
     N     0.5110722474   -3.3489547474    0.5112694216
     C     0.3124658057   -2.2134118426    0.3653180661
     H     1.4166217902   -5.1036607098   -0.0948523740
     H    -4.9070553364   -1.4074786084    1.6108942733
     H    -5.1934973244    0.2910390757    1.1290615452
     C    -4.7616883230   -0.6647026906    0.8228733876
     N    -3.3588973775   -0.4935132475    0.5960791402
     C    -2.2193547888   -0.3524452980    0.4179565581
     H    -5.2348154023   -1.0072235471   -0.1005415355
     H     0.6629482577   -0.0766554225    5.3314654159
     H     1.7139841703    1.2969598925    4.8782647528
     C     0.7202661897    0.8566994989    4.7662978561
     N     0.4844587972    0.5793465134    3.3827654757
     C     0.2925689199    0.3520648540    2.2601074380
     H    -0.0385726838    1.5556406094    5.1258558758
     S    -0.3889077160   -0.4097407915   -2.5626983139
     H     0.0372206166   -1.6643548940   -2.8169599773
     H    -1.6912484468   -0.7191852102   -2.7316273202
