25
-1.7461843014496890e+03 frame 79   xyz file generated by TeraChem
    Co     0.0057534584   -0.0057386700    0.0257366730
     P    -0.4073606009    2.5761235448    0.3138946749
     H    -1.5971039990    2.9923683070    0.9478343316
     H     0.5221683126    3.2812254959    1.1066449042
     H    -0.4379207578    3.4307040839   -0.8085578236
     P     2.5690823786    0.5061058811   -0.2406065147
     H     2.9397953936    1.7135250760   -0.8690405381
     H     3.3992528239    0.5840514820    0.8977086542
     H     3.3314734346   -0.3910906287   -1.0173611202
     P     0.3882313038   -2.5924518392   -0.2024220490
     H     1.6868532617   -3.1029546030   -0.4124676915
     H    -0.0236497569   -3.4462008806    0.8428225446
     H    -0.2738907497   -3.2198120819   -1.2780175397
     P    -2.5726733215   -0.4816577956    0.2087712706
     H    -3.0629695044   -1.8042047144    0.1703093982
     H    -3.2157199606   -0.0361404753    1.3822889639
     H    -3.4303267136    0.0970756279   -0.7510910366
     C     0.5260296013   -0.4356265365    3.2616976335
     O     0.0551591867   -0.0236910744    2.2088622012
     H     0.1317430741   -0.0770373607    4.2229470581
     H     1.3476578215   -1.1678278118    3.2815783045
     C    -0.4564534089    0.4109082153   -3.2340625766
     O    -0.0085790635    0.0204074275   -2.1630692653
     H     0.0012892445    0.0847259660   -4.1786502505
     H    -1.3204092615    1.0908551942   -3.2868511681
