37
-2.2970745726107216e+03 frame 61   xyz file generated by TeraChem
    Co    -0.1968499600    0.0819507868    0.1013844810
     C     0.3153424577    4.3314296510   -0.4928614439
     C     0.7709019254    3.0783130040   -0.1936044483
     N    -0.2714800401    2.1755438094   -0.2771067142
     C    -1.3461126945    2.8660408700   -0.6219616238
     N    -1.0324060164    4.1762624543   -0.7649610540
     H    -1.6922187307    4.9047625199   -0.9922168299
     H     0.8053454266    5.2919123968   -0.5227131348
     H     1.7582496638    2.7661434049    0.1035856477
     H    -2.3488300851    2.4814536454   -0.7442575558
     C     4.3103446464   -0.0948154614   -0.0869754225
     C     3.1540647784    0.3670255739    0.4808132029
     N     2.0626620376   -0.1315251084   -0.2119759014
     C     2.5523847844   -0.8866498276   -1.1812316649
     N     3.9088393440   -0.8946563887   -1.1419111864
     H     4.5044596724   -1.3933039670   -1.7857022924
     H     5.3497307581    0.0646296379    0.1552829190
     H     3.0343771107    1.0131160857    1.3390201329
     H     1.9845774656   -1.4451844697   -1.9115584141
     C     0.4240645174   -4.0903989419    1.2005706374
     C     0.6270879657   -2.7471343615    1.3569537517
     N    -0.1112917794   -2.0578194776    0.4154954502
     C    -0.7565334519   -2.9622458442   -0.2987065225
     N    -0.4630480677   -4.2085097359    0.1427383024
     H    -0.8032084967   -5.0650268457   -0.2675180239
     H     0.8019258744   -4.9495790483    1.7327303635
     H     1.2209167972   -2.2120943791    2.0826014952
     H    -1.4181616709   -2.7483131579   -1.1225794746
     S    -2.7460522449   -0.4025636545    0.5818934151
     C    -3.7576626901    0.8957493254    0.2606947156
     N    -4.4605910190    1.8075701441    0.0145424064
     S     0.1416901880    0.5236681633    2.7150187733
     C     1.3438378063    1.6758050503    2.9098504394
     N     2.1993341406    2.4744386518    3.0443929950
     S    -0.6377529054   -0.1741331941   -2.5770586297
     C     0.0108984238   -1.6164308122   -3.1225055949
     N     0.4949663593   -2.6338031697   -3.4716637332
