17
-2.1185245139593530e+03 frame 53   xyz file generated by TeraChem
    Co     0.0104053342    0.0140676094    0.0337547841
     C     0.3850872286    2.1611793523    0.2894673223
     S     0.6492792706    3.6362137357    0.5231983528
     C     2.1733176460   -0.2320555687   -0.2840631232
     S     3.6536954568   -0.3902659351   -0.5733448926
     C    -0.3645710598   -2.1336571452   -0.2218377412
     S    -0.6286509925   -3.6088156667   -0.4548778888
     C    -2.1527229798    0.2607645907    0.3512989238
     S    -3.6330018273    0.4195396265    0.6408042195
     C     0.7100596843   -0.7244511093    3.1138952835
     O     0.1736879534   -0.1366868109    2.1844706737
     H     1.4199021190   -1.5490376855    2.9465631516
     H     0.4886393357   -0.4357202441    4.1508095791
     C    -0.6896642351    0.7534831112   -3.0461444579
     O    -0.1547100495    0.1646075161   -2.1166239577
     H    -1.3955197521    1.5815510788   -2.8791180305
     H    -0.4709603522    0.4622337787   -4.0829328154
