53
-1.3668909299225038e+03 frame 58   xyz file generated by TeraChem
    Co     0.0045907082   -0.0219284943    0.1003745006
     C     0.8627554895    4.8497630294   -0.4339094695
     C     1.6119752799    4.0929901569    0.4684052824
     C     1.3404031366    2.7343807414    0.5908660269
     N     0.3726584330    2.1118238936   -0.1157957233
     C    -0.3457386403    2.8514826678   -0.9864596094
     C    -0.1314861333    4.2124389006   -1.1770161040
     H     1.0520533718    5.9117582702   -0.5570520382
     H     2.4001136800    4.5423008852    1.0634130294
     H     1.9215122468    2.1105292510    1.2621856078
     H    -1.1140737759    2.3246039848   -1.5400026339
     H    -0.7368569568    4.7585589075   -1.8928007934
     C     4.8895956493   -0.9886029248    0.2259682519
     C     4.0299389970   -1.4817307907    1.2082827424
     C     2.6759257706   -1.1725849300    1.1315186927
     N     2.1533663284   -0.4062425116    0.1514759338
     C     2.9922369135    0.0673770759   -0.7921042289
     C     4.3571752487   -0.2001709296   -0.7950842911
     H     5.9512287856   -1.2142843892    0.2548819325
     H     4.3976413756   -2.0994341527    2.0208379271
     H     1.9753916363   -1.5485781638    1.8697751747
     H     2.5423446212    0.6840831592   -1.5627728640
     H     4.9860478645    0.2043567983   -1.5811701148
     C    -0.7623691707   -4.8963893768    0.3433538350
     C    -1.3319401598   -4.0428714002    1.2889414485
     C    -1.1040588356   -2.6752026549    1.1827301330
     N    -0.3444832746   -2.1382181788    0.2057729689
     C     0.2051139872   -2.9683734052   -0.7044033406
     C     0.0182173481   -4.3456027383   -0.6744721990
     H    -0.9235106066   -5.9687172654    0.3978738538
     H    -1.9461758119   -4.4258002013    2.0969537166
     H    -1.5348782607   -1.9793440505    1.8937252655
     H     0.8080665556   -2.4979344690   -1.4730473265
     H     0.4798352097   -4.9702755092   -1.4318268225
     C    -4.9480093280    0.6270290432   -0.1675362668
     C    -4.3001154083   -0.3260404442   -0.9536560743
     C    -2.9190700049   -0.4560870204   -0.8491952656
     N    -2.1683890298    0.3053492802   -0.0264886422
     C    -2.8048107097    1.2260854394    0.7250282735
     C    -4.1819143102    1.4179194441    0.6898980225
     H    -6.0252953107    0.7509094700   -0.2211282720
     H    -4.8525961534   -0.9642119119   -1.6352625147
     H    -2.3849599089   -1.1966477615   -1.4343704937
     H    -2.1793534700    1.8359768520    1.3691365450
     H    -4.6396223792    2.1727541635    1.3205799411
     C    -0.0577690973    0.8801176039    3.2369742507
     O    -0.0484596559    0.0804591702    2.3136854555
     H     0.0042506746    1.9653042402    3.0615375755
     H    -0.1263058777    0.5293790794    4.2771223412
     C     0.0206899644   -0.0685683320   -3.4468009905
     O     0.0306541219   -0.0702640968   -2.2280103425
     H     0.0892957237    0.8710719887   -4.0190279726
     H    -0.0571037146   -1.0055292254   -4.0221754799
