41
-9.1691252377711612e+02 frame 63   xyz file generated by TeraChem
    Co     0.0306017132    0.2618456077    0.0321051300
     O     0.2533108012    2.6319822546   -0.0829665969
     C     1.2540744387    3.0791690995   -0.9921004980
     C    -1.0332076954    3.1422176290   -0.4187400916
     H    -1.7396509915    2.7046441034    0.2864468642
     H    -1.3090402175    2.8419349930   -1.4381073829
     H    -1.0430724600    4.2391484521   -0.3384849420
     H     2.1971833079    2.6599956594   -0.6431606778
     H     1.3073114519    4.1776600281   -0.9925957875
     H     1.0373192671    2.7150413690   -2.0041380302
     O     2.3617665128    0.1999098530   -0.1134574962
     C     2.9337146453   -0.2232184374   -1.3476939184
     C     3.0197158612   -0.3311529706    1.0318434132
     H     2.3817586406   -0.0934057145    1.8847343582
     H     4.0215347714    0.1085380240    1.1437777056
     H     3.1142568536   -1.4234260901    0.9474579054
     H     2.2183145117    0.0660777401   -2.1171189759
     H     3.0567992791   -1.3160105658   -1.3587165301
     H     3.9152675766    0.2483073432   -1.5010527395
     O     0.0256569545   -2.1590733520    0.3673972109
     C     0.0472895363   -3.1473313472   -0.6425075567
     C    -0.0277246566   -2.6746323749    1.6913920620
     H     0.0203475758   -1.7992221212    2.3395356857
     H     0.8256525676   -3.3439636897    1.8802433671
     H    -0.9601075607   -3.2357530141    1.8576834564
     H     0.1647454735   -2.6220210976   -1.5925901683
     H    -0.8847320753   -3.7337416704   -0.6524346851
     H     0.8939341793   -3.8370548303   -0.5030648111
     O    -2.3593925057    0.2574245985    0.2453963242
     C    -3.2415149831   -0.0075291128   -0.8303617843
     C    -2.8914948855   -0.0576688954    1.5282790473
     H    -2.0740260276    0.1559852615    2.2190672292
     H    -3.1760693989   -1.1192623071    1.5818779954
     H    -3.7766648784    0.5598736656    1.7428885925
     H    -2.7122587576    0.2645631442   -1.7457246392
     H    -4.1614507803    0.5892230459   -0.7394319940
     H    -3.5166911535   -1.0732707930   -0.8641711800
     O     0.0858725226    0.3754103429    1.9287444715
     H     0.4727846449    1.2193315102    2.2076077566
     O    -0.0830457217    0.1271048604   -1.8491913195
     H    -0.6461149030   -0.6037150712   -2.1384677084
