41
-1.6372082751243097e+03 frame 76   xyz file generated by TeraChem
    Co     0.1276130200    0.0578002793    0.1027831019
     O     0.0948057717    2.2025598830    0.0275275272
     C     1.0366091043    2.9516433223   -0.7766838824
     C    -1.0529959263    3.0070971159    0.3888105129
     H    -1.6709893520    2.4090453021    1.0575536452
     H    -1.6164934360    3.2828042736   -0.5083874981
     H    -0.7161026198    3.9103295093    0.9063236915
     H     1.8800148951    2.2923074363   -0.9749212115
     H     1.3718237888    3.8311464016   -0.2184759543
     H     0.5663925235    3.2688401383   -1.7132406751
     O     2.2930772139    0.0471342173    0.2295033056
     C     3.1282438573   -0.8421677948   -0.5465988604
     C     3.0761234922    0.7824916911    1.1969176742
     H     2.4380820297    1.5547647796    1.6195623987
     H     3.9326708332    1.2475980847    0.6995361697
     H     3.4277434795    0.1068030025    1.9830290241
     H     2.4701532736   -1.4526361101   -1.1623477739
     H     3.7095992329   -1.4833468774    0.1229149262
     H     3.8063573225   -0.2574642721   -1.1763204703
     O     0.1910933651   -2.2037052479    0.0889603296
     C    -0.5614175268   -3.0554327778   -0.7978416539
     C     1.0598121144   -2.9708946057    0.9486580062
     H     1.5999694733   -2.2607361986    1.5736026403
     H     1.7640760052   -3.5557660007    0.3479062524
     H     0.4687270298   -3.6465772406    1.5759130594
     H    -1.1705296371   -2.4131546648   -1.4342508128
     H    -1.2080431169   -3.7251157596   -0.2205409712
     H     0.1187072584   -3.6500410342   -1.4172373719
     C    -2.0818075360   -0.1272378664   -0.0684928884
     S    -3.5901892407   -0.2446580157   -0.1920511030
     O    -0.1714315166    0.0786209951    2.2176353421
     C    -0.8561628439   -0.9863648694    2.9199211604
     C     0.1329857445    1.1760125568    3.1106126370
     H     0.5027662685    1.9962077574    2.4996882983
     H     0.8884064037    0.8649601606    3.8388815383
     H    -0.7768873608    1.4856119963    3.6346924030
     H    -1.1039383901   -1.7495313545    2.1853197991
     H    -1.7666547374   -0.5953433594    3.3848510420
     H    -0.1973655309   -1.4006175948    3.6891386460
     C     0.3558348567   -0.0129600355   -2.1178707437
     S     0.4255718196   -0.0110424845   -3.6341045110
