22
-1.5124613361057445e+03 frame 67   xyz file generated by TeraChem
    Co     0.1449259189    0.1186596837    0.0711384363
     N    -0.1455367563    2.2955303972    0.2013918307
     H    -1.0971576098    2.5974455032   -0.0240173440
     H     0.0502589309    2.6902231212    1.1248191750
     H     0.4531715494    2.8100744653   -0.4509380175
     N     2.3240304524    0.3145914693    0.2790504343
     H     2.6337839095    1.2885210511    0.3308915165
     H     2.7037907547   -0.1338253727    1.1174928706
     H     2.8463220304   -0.0980826203   -0.4984980029
     S     0.6666002068   -2.4762392439   -0.4187694054
     H    -0.3341384045   -2.9902122768   -1.1630738130
     H     0.3991421777   -3.2491666109    0.6560019135
     S    -2.5184769778   -0.1093961942   -0.5072358849
     H    -2.8392433353   -1.4149313358   -0.6145460523
     H    -3.2812731893    0.0924765835    0.5885036630
     N    -0.2376005975   -0.0942800352    2.2114437453
     H    -1.0223755200    0.4728987001    2.5404298537
     H    -0.4715534084   -1.0551729993    2.4722810295
     H     0.5528452321    0.1640892242    2.8080604389
     S     0.5280457360    0.5294368468   -2.5877348376
     H     0.9928293149   -0.5788794832   -3.2026402955
     H    -0.6703955949    0.5044441889   -3.2081589860
