53
-1.5165696299111100e+03 frame 61   xyz file generated by TeraChem
    Co    -0.0005914262    0.0004743892   -0.0023535746
     C     0.6960119178    4.9990385703    0.2429671539
     C     0.9213493918    4.3235307376   -0.9545186259
     C     0.7226750508    2.9441244690   -1.0029492339
     N     0.3205185380    2.2353655931    0.0674852807
     C     0.1111670345    2.8895295551    1.2237012027
     C     0.2826988580    4.2648989485    1.3545034852
     H     0.8410251373    6.0740850674    0.3108059502
     H     1.2472188886    4.8481444536   -1.8473944185
     H     0.8797629193    2.3728330125   -1.9178833221
     H    -0.1856191616    2.2656363811    2.0582436858
     H     0.0975311450    4.7429887416    2.3115340615
     C     4.9563131147   -0.9155705880    0.0379741296
     C     4.1814511203   -1.0829487324    1.1854810943
     C     2.8197945854   -0.7999061961    1.1214389653
     N     2.2165402206   -0.3751262329   -0.0025273374
     C     2.9656333104   -0.2084959116   -1.1068496975
     C     4.3355335228   -0.4672023526   -1.1262361614
     H     6.0222590941   -1.1273170250    0.0531888071
     H     4.6182540948   -1.4250689418    2.1186299256
     H     2.1703753334   -0.8926299007    1.9838248601
     H     2.4370393704    0.1460503445   -1.9901011512
     H     4.8954134299   -0.3166820535   -2.0440441424
     C    -0.6970678515   -4.9979628722   -0.2480869460
     C    -0.9212184108   -4.3227008371    0.9497441348
     C    -0.7223132427   -2.9433199069    0.9982595313
     N    -0.3210664905   -2.2343873941   -0.0724065544
     C    -0.1128733371   -2.8883645912   -1.2289639391
     C    -0.2846831206   -4.2636731501   -1.3598822578
     H    -0.8422905528   -6.0729725747   -0.3160442535
     H    -1.2463683866   -4.8474297081    1.8428151836
     H    -0.8785528943   -2.3722356452    1.9134732150
     H     0.1832057598   -2.2643403068   -2.0636623706
     H    -0.1004129035   -4.7416286477   -2.3171531990
     C    -4.9579271457    0.9129373259   -0.0426994522
     C    -4.1826227305    1.0841398162   -1.1893331656
     C    -2.8206120790    0.8027999710   -1.1251422490
     N    -2.2174349390    0.3762355422   -0.0018239500
     C    -2.9669589781    0.2059481517    1.1016505955
     C    -4.3372188918    0.4626873811    1.1208383405
     H    -6.0241610502    1.1232159613   -0.0580430003
     H    -4.6193415826    1.4278897622   -2.1219224780
     H    -2.1708901580    0.8983658454   -1.9869877713
     H    -2.4383357951   -0.1495954764    1.9844935761
     H    -4.8974659774    0.3092560083    2.0379396200
     C    -0.5230738929   -0.5310454159    3.0944783863
     O     0.0618393409    0.0119225146    2.1005939247
     O     0.0348724729   -0.1466502290    4.2723016366
     H     0.7764958486    0.4748684968    4.0593857980
     C     0.5218879709    0.5319088533   -3.0990393599
     O    -0.0634357891   -0.0107650988   -2.1052105450
     O    -0.0383777069    0.1502900185   -4.2767461699
     H    -0.7812202965   -0.4696715400   -4.0636361553
