59
-1.2613961514101375e+03 frame 38   xyz file generated by TeraChem
    Co     0.0027971142    0.0004344284    0.0034028722
     O     0.0025155422    2.2494467530    0.0027020085
     C     1.1867079015    3.0650498941    0.1439019643
     C    -1.1862598963    3.0573174378   -0.1511198098
     H    -2.0234785794    2.3661090621   -0.2054285656
     H    -1.1175268366    3.6504334615   -1.0691297755
     H    -1.2998892563    3.7285017439    0.7071396528
     H     2.0299047273    2.3797705614    0.1710399006
     H     1.1328102107    3.6475707744    1.0698208645
     H     1.2778300389    3.7475959431   -0.7080368677
     O     2.3222725213    0.0041270095    0.2142827857
     C     3.3012488109   -0.1321691283   -0.8410466881
     C     2.9912201233    0.1498846930    1.4882804282
     H     2.2271882283    0.3233965629    2.2411494007
     H     3.6834779959    0.9982206948    1.4555222497
     H     3.5497889520   -0.7626168458    1.7230767366
     H     2.7787952596   -0.3294284077   -1.7740548346
     H     3.9759846956   -0.9645204190   -0.6132031156
     H     3.8850800481    0.7907694791   -0.9289673466
     O    -0.0052397963   -2.2494855278    0.0024398309
     C    -1.1931932315   -3.0605247861   -0.1354498346
     C     1.1799038263   -3.0627887108    0.1541529637
     H     2.0178376879   -2.3752838152    0.2381851360
     H     1.3055343643   -3.7131678342   -0.7183445908
     H     1.0971243678   -3.6779128488    1.0564015758
     H    -2.0304400846   -2.3702396678   -0.1977005082
     H    -1.3043912650   -3.7169338470    0.7345348821
     H    -1.1279305318   -3.6707275298   -1.0426093112
     O    -2.3246252033   -0.0023457817   -0.2078021949
     C    -2.9834114415   -0.0440039248   -1.4945532589
     C    -3.3143481253    0.0079840016    0.8466912827
     H    -2.8015937766    0.0395039220    1.8050684317
     H    -3.9299285059   -0.8960487453    0.7849011918
     H    -3.9566308605    0.8888692559    0.7404894419
     H    -2.2114681572   -0.0132965264   -2.2580266464
     H    -3.6495994431    0.8191506552   -1.6009040878
     H    -3.5694362969   -0.9650653379   -1.5893065170
     C    -0.6571679607    0.0157229561    4.9209420896
     C    -0.5646017137    1.2146192026    4.2125226113
     C    -0.3759649704    1.1715817014    2.8361726377
     N    -0.2791976351    0.0154108852    2.1405174920
     C    -0.3685653198   -1.1399799386    2.8376398163
     C    -0.5553062887   -1.1829221106    4.2145512885
     H    -0.8033155911    0.0160702012    5.9967627600
     H    -0.6343110193    2.1735555398    4.7150880613
     H    -0.2931395094    2.0780304424    2.2541089092
     H    -0.2784966149   -2.0459957704    2.2560756859
     H    -0.6166926057   -2.1417926524    4.7182916743
     C     0.6667233820   -0.0111453975   -4.9142591319
     C     0.5112723593   -1.2078462541   -4.2131480109
     C     0.3212783875   -1.1629460847   -2.8371800399
     N     0.2805228499   -0.0072040133   -2.1350899310
     C     0.4298013060    1.1461256863   -2.8253520615
     C     0.6230381065    1.1871653655   -4.2014095623
     H     0.8160994166   -0.0128156542   -5.9896260661
     H     0.5340707123   -2.1661897878   -4.7211289370
     H     0.1916814119   -2.0662072526   -2.2586187019
     H     0.3821223881    2.0531183397   -2.2402819343
     H     0.7342788874    2.1445065756   -4.6994226864
