23
-2.2965301751566344e+03 frame 77   xyz file generated by TeraChem
    Co    -0.0360275727   -0.0470796882    0.0027164033
     P    -0.4248680558    2.5593874643   -0.3367013395
     H    -1.7118082895    3.1036729759   -0.1359726325
     H     0.3183622561    3.4624490677    0.4537130399
     H    -0.1506306923    3.1020533364   -1.6100516335
     P     2.5525733233    0.3271929363   -0.4948869328
     H     3.0135780274    1.6203955998   -0.8224979745
     H     3.4788731626    0.0178611327    0.5244437111
     H     3.1393276407   -0.3938430655   -1.5560612497
     P     0.3449409506   -2.6612351758    0.3208255051
     H     1.6603642999   -3.1739452160    0.3145073321
     H    -0.1279605858   -3.2810126229    1.4972943626
     H    -0.2308396997   -3.5248534913   -0.6348493169
     P    -2.6304719628   -0.4332775989    0.4429874246
     H    -3.1456044399   -1.7468470566    0.4078986300
     H    -3.2253103569    0.0071062358    1.6446025440
     H    -3.5161387700    0.1705674069   -0.4752807768
     P     0.3012346094    0.4126083454    2.5744291809
     H     1.4985719051    1.0159935890    3.0154951760
     H    -0.6208317177    1.2684004342    3.2143531827
     H     0.2559418378   -0.6699451565    3.4789716360
     C    -0.2857638661   -0.4295767200   -2.0868057706
     S    -0.4629624096   -0.6944014967   -3.5718894146
