63
-1.4479455241003584e+03 frame 41   xyz file generated by TeraChem
    Co     0.0054842824    0.0023716869    0.0109575740
     C    -0.0670317912    4.9583070295    0.8111138218
     C     1.1298119266    4.2469353434    0.9010592386
     C     1.1191117299    2.8765462700    0.6660224784
     N    -0.0014170952    2.1868491215    0.3540612708
     C    -1.1544948301    2.8879979756    0.2713777413
     C    -1.2300430920    4.2596377863    0.4881547236
     H    -0.0920027802    6.0292212744    0.9880740028
     H     2.0628652613    4.7411598723    1.1504040744
     H     2.0296060394    2.2976751880    0.7317195341
     H    -2.0368676119    2.3177030213    0.0166432961
     H    -2.1868916838    4.7641131616    0.4045404292
     C     5.0300368991    0.0647245921    0.0170007904
     C     4.3174902285   -0.2448546593    1.1763699057
     C     2.9271104854   -0.2435737744    1.1320175600
     N     2.2282238872    0.0454963913    0.0126390531
     C     2.9263399517    0.3412260175   -1.1047630574
     C     4.3167833507    0.3623455237   -1.1448854974
     H     6.1157504497    0.0730430595    0.0188203222
     H     4.8265999838   -0.4844156565    2.1040198643
     H     2.3344620986   -0.4772125887    2.0073626676
     H     2.3338257715    0.5607740832   -1.9832788584
     H     4.8252537592    0.6078357362   -2.0713271128
     C     0.0576853134   -4.9586853172   -0.7977110474
     C    -1.1383953095   -4.3003713770   -0.5111829040
     C    -1.1166399815   -2.9281329789   -0.2879922259
     N     0.0139894761   -2.1873628465   -0.3308410144
     C     1.1664936036   -2.8385792904   -0.6080208684
     C     1.2314577235   -4.2072439547   -0.8463461886
     H     0.0742608869   -6.0292140848   -0.9780165405
     H    -2.0799356480   -4.8368958201   -0.4597725310
     H    -2.0255719431   -2.3892986764   -0.0606383903
     H     2.0602004653   -2.2315383664   -0.6405128534
     H     2.1888093553   -4.6682429625   -1.0651946683
     C    -5.0363459760   -0.0749186097    0.0115430652
     C    -4.3259663168    0.0473567399   -1.1835378875
     C    -2.9356699268    0.0599079506   -1.1406105313
     N    -2.2342288865   -0.0429193312    0.0093382399
     C    -2.9312005973   -0.1599703642    1.1604812468
     C    -4.3214209249   -0.1795869123    1.2054833285
     H    -6.1219859063   -0.0878552229    0.0123742974
     H    -4.8367127500    0.1322917053   -2.1370040603
     H    -2.3435495966    0.1599661091   -2.0411542274
     H    -2.3355365675   -0.2418055259    2.0604748091
     H    -4.8285453704   -0.2752489483    2.1598541004
     O     0.0028950844   -0.3461119508    2.3917681186
     C     0.0220882865    0.6907698219    3.3921449059
     C    -0.0386034808   -1.6450571227    3.0137877711
     H    -0.0190079549   -2.3942806337    2.2262165561
     H    -0.9542818823   -1.7528702100    3.6073657720
     H     0.8288847190   -1.7753749867    3.6714512642
     H     0.0407345082    1.6521550140    2.8843929965
     H     0.9125026704    0.5863034522    4.0226525878
     H    -0.8723646266    0.6213943673    4.0219367063
     O     0.0006530532    0.3598633196   -2.3643104409
     C     0.0560948763    1.6575439340   -2.9885161570
     C    -0.0636689296   -0.6797422394   -3.3595273343
     H    -0.1715012841   -1.6322040797   -2.8456956093
     H     0.8528964613   -0.6817466274   -3.9604013859
     H    -0.9239238490   -0.5159540132   -4.0190119788
     H     0.1908272210    2.3991770984   -2.2048410433
     H    -0.8745505039    1.8542681118   -3.5335087866
     H     0.8962694163    1.7045586127   -3.6914399336
