39
-1.9857058150388289e+03 frame 76   xyz file generated by TeraChem
    Co    -0.0012263596    0.0519663855   -0.0011336372
     O     0.4027883549    2.2574157681   -0.5423988499
     C     0.1574277426    2.9091531570   -1.7360912086
     C     0.4685659201    4.2212636408   -1.6080924338
     C     0.9332569212    4.4112161326   -0.2600187848
     C     0.8752690451    3.2024965724    0.3484749199
     H    -0.2109144059    2.2821925589   -2.5307257393
     H     0.3799512064    4.9719189039   -2.3810148685
     H     1.0940823007    2.8278779604    1.3344745592
     H     1.2658417338    5.3346690001    0.1931045142
     O     2.3121934864   -0.0955155379   -0.2273618248
     C     3.2670318675   -0.1284226757    0.7697668997
     C     4.4975851256   -0.2434807786    0.2142188919
     C     4.3098274543   -0.2872405688   -1.2114060096
     C     2.9764430723   -0.1961919672   -1.4334422185
     H     2.8848817272   -0.0544743527    1.7745177926
     H     5.4341116115   -0.2920699822    0.7521477872
     H     2.3410364389   -0.1918156527   -2.3034870440
     H     5.0754587031   -0.3762576954   -1.9694016849
     O    -0.3688821994   -2.1650148231    0.5117860235
     C    -0.5172126551   -2.7360581155    1.7605183910
     C    -0.7073731909   -4.0707277831    1.6282965318
     C    -0.6760859547   -4.3598137049    0.2195486453
     C    -0.4700564535   -3.1824324230   -0.4178288184
     H    -0.4534712446   -2.0487059338    2.5875340567
     H    -0.8535365865   -4.7734482000    2.4367290388
     H    -0.3800823550   -2.8698488994   -1.4447798968
     H    -0.7935834917   -5.3251774740   -0.2526761574
     O    -2.3304813860    0.1624386890    0.2163198422
     C    -2.9989181359    0.4629741185    1.3866000135
     C    -4.3287757950    0.2705989645    1.2130108686
     C    -4.5097018595   -0.1801728905   -0.1409321857
     C    -3.2791573430   -0.2326863279   -0.7058367121
     H    -2.3691965254    0.7802405708    2.2013675620
     H    -5.0963646444    0.4296526320    1.9574839605
     H    -2.8914742223   -0.4974784883   -1.6754489479
     H    -5.4420862397   -0.4312193361   -0.6271114364
    Cl     0.3070122194    0.4735725126    2.2746213870
    Cl    -0.3150254507   -0.3603758908   -2.2845619404
