34
-8.6471992369424834e+02 frame 39   xyz file generated by TeraChem
    Co     0.0009352784   -0.0032644642   -0.1651207830
     C     0.5088660911    3.3364169883    0.0455776370
     N     0.3726964428    2.1892290213    0.1118344090
     C     0.6780534559    4.7827204543   -0.0540168264
     H     0.4339496270    5.1176388546   -1.0669129478
     H     1.7132100491    5.0579742959    0.1697206341
     H     0.0171077365    5.2899450211    0.6553927672
     C     3.3368275561   -0.5363205934    0.0409767935
     N     2.1999994463   -0.3268163114    0.0934072603
     C     4.7696458170   -0.8033377741   -0.0373229631
     H     5.3279306664    0.1377962995   -0.0428828973
     H     4.9975443416   -1.3543542923   -0.9549774973
     H     5.0906370097   -1.3990767467    0.8225515435
     C    -0.5192231055   -3.3406981542    0.0623288057
     N    -0.3728179931   -2.1941273304    0.1158990560
     C    -0.7035077961   -4.7862478251   -0.0200305497
     H     0.2679738242   -5.2897968055   -0.0096528346
     H    -1.2232587598   -5.0436595158   -0.9480703172
     H    -1.2957740945   -5.1422681660    0.8283262246
     C    -3.3354085274    0.5259358830    0.0413235474
     N    -2.1979648003    0.3200815508    0.0948529891
     C    -4.7690782288    0.7873318118   -0.0401119722
     H    -5.3124870443    0.1403220196    0.6551500856
     H    -5.1261470480    0.5941388789   -1.0564435916
     H    -4.9761603475    1.8315362252    0.2132706931
     C     0.0113029707    0.0106632669    3.3322721798
     N     0.0036797035    0.0005328480    2.1753254213
     C     0.0218949813    0.0245626762    4.7920664529
     H    -0.9339455380   -0.3406460977    5.1797200718
     H     0.1852192696    1.0431110881    5.1572021480
     H     0.8240115729   -0.6175907359    5.1684688998
     N     0.0013019020   -0.0029478758   -2.0292260307
     H    -0.7007123854   -0.4363116783   -2.6247940580
     H     0.7069798183    0.4286567764   -2.6218012571
