28
-2.0164489972160036e+03 frame 73   xyz file generated by TeraChem
    Co     0.0771005102   -0.3980054388   -0.1378109233
     S     0.4922193287    2.2111448897    0.3527729229
     C    -1.0265739391    2.8976869047    0.5242921932
     N    -2.0963447299    3.3679166190    0.6363153669
     S     2.4660006053   -0.7502895617   -0.4446705807
     C     2.8088855513    0.0727991963   -1.8778759240
     N     3.0344867689    0.6205491956   -2.8886358374
     H    -0.3309074085   -5.0608063662    1.9675121419
     H    -1.1864860820   -5.4356245076    0.4455954517
     C    -0.2977878421   -4.9693664923    0.8786868129
     N    -0.2625510190   -3.5926904060    0.5243122989
     C    -0.1981523947   -2.4618741912    0.2547913128
     H     0.5992256700   -5.4636432474    0.4966057305
     H    -4.2384183246    1.9108016709    1.0628730078
     H    -5.1472569337    0.3895008378    0.7578226386
     C    -4.2584855196    0.8284990147    1.2174962744
     N    -3.0861725684    0.2819515281    0.6218349645
     C    -2.0359076944   -0.0536582627    0.2545932595
     H    -4.2261796831    0.6038805753    2.2871868631
     S     0.5799714178    0.0852000187    2.4416584517
     C    -0.9293413408    0.0645002086    3.1721796897
     N    -1.9904329027    0.0425323292    3.6734955319
     H     1.2990834669    0.8892901494   -4.6392479104
     H     0.0007364089   -0.1299811866   -5.3489260734
     C     0.2266361746    0.6705004936   -4.6399179055
     N    -0.1175778710    0.2505330730   -3.3231269109
     C    -0.2097343543   -0.0477576182   -2.2028224707
     H    -0.3494818140    1.5625916741   -4.8983417803
