17
-2.2515339302511520e+03 frame 34   xyz file generated by TeraChem
    Co     0.0151451359   -0.0209458189   -0.0151051928
    Cl     0.3547109741    2.3453361159   -0.3973925215
    Cl     2.3706179707   -0.4324449356   -0.3752137305
    Cl    -0.3260966849   -2.3847791138    0.3659655323
    Cl    -2.3430147544    0.3914536409    0.3453933006
     H     1.1696414509    1.6882040756    4.7179081300
     H    -0.1966946888    0.6082084077    5.1041768054
     C     0.7536560882    0.6872381735    4.5673813211
     N     0.5433694935    0.4601660454    3.1883287922
     C     0.3612770552    0.2829042716    2.0504403812
     H     1.4529512282   -0.0558350324    4.9629818080
     H    -1.0449462560    0.2904124603   -5.0634285144
     H     0.1287651457   -1.0528087004   -5.0800187194
     C    -0.7736675417   -0.6628101322   -4.5992507521
     N    -0.5355728728   -0.4711117690   -3.2193250188
     C    -0.3410231029   -0.3116544313   -2.0808669227
     H    -1.5920012051   -1.3759963243   -4.7379895500
