27
-2.4826868756377735e+03 frame 38   xyz file generated by TeraChem
    Co    -0.0004737037    0.0019333632    0.0242589856
    Cl     0.3548861136    2.4272813170    0.3830635161
    Cl     2.3088569947   -0.3931980309    0.3857755121
    Cl    -0.3575512514   -2.4241358011   -0.3341032281
    Cl    -2.3096463680    0.3959690367   -0.3369249579
     C    -0.8632397823   -0.5879747997    4.8825892889
     C    -1.2862419116    0.5640587254    4.2217476419
     C    -1.0210879282    0.6945818751    2.8598445230
     N    -0.3730688712   -0.2528290906    2.1672694698
     C     0.0348555104   -1.3640775466    2.7963540709
     C    -0.1902788103   -1.5689492475    4.1563353206
     H    -1.0545905558   -0.7189015287    5.9453546554
     H    -1.8138476523    1.3562726903    4.7443448392
     H    -1.3088651426    1.5718896514    2.2918295917
     H     0.5407166487   -2.0934227130    2.1744799141
     H     0.1583013910   -2.4836533067    4.6262956292
     C     0.8649369704    0.5862418615   -4.8339392216
     C     1.2882104107   -0.5649192000   -4.1717348768
     C     1.0227700402   -0.6940223416   -2.8097490321
     N     0.3742764283    0.2540027925   -2.1185245948
     C    -0.0339704565    1.3644173393   -2.7488898389
     C     0.1914327928    1.5678626907   -4.1090400043
     H     1.0565294609    0.7160077241   -5.8968018654
     H     1.8161921598   -1.3575352502   -4.6933463950
     H     1.3106741852   -1.5705156055   -2.2405607879
     H    -0.5402418337    2.0942789518   -2.1279315169
     H    -0.1573001947    2.4819133150   -4.5801585559
