43
-1.1768785486976949e+03 frame 59   xyz file generated by TeraChem
    Co    -0.1552446269    0.0476318304   -0.1582096218
     O    -0.0481033013    2.3483852228   -0.1041184466
     C    -1.0486817329    3.1743230988   -0.5882930897
     C    -0.5993163498    4.4501956404   -0.6457513846
     C     0.7615005292    4.4358466426   -0.1767617418
     C     1.0558536063    3.1520292350    0.1370187478
     H    -1.9782293622    2.6811685304   -0.8224167833
     H    -1.1629420644    5.3099142542   -0.9797543538
     H     1.9250761345    2.6390041535    0.5143925871
     H     1.4280720766    5.2823663982   -0.0894511300
     O     2.1637552449    0.0689255016    0.3511696026
     C     2.8551715655   -0.0993281681    1.5414830155
     C     4.1843676461   -0.1704777644    1.2937957173
     C     4.3528432773   -0.0430004035   -0.1293970179
     C     3.1146985893    0.0975727415   -0.6594861170
     H     2.2524728076   -0.1446123131    2.4324695986
     H     4.9629704854   -0.2991695596    2.0325019621
     H     2.7203702990    0.2217852037   -1.6541089849
     H     5.2836982200   -0.0541453174   -0.6789405110
     O     0.2707858330   -2.3302277370   -0.1386728238
     C     1.4388654939   -3.0240734086   -0.3934209679
     C     1.1699186946   -4.3456213950   -0.5236264434
     C    -0.2479836390   -4.5018824338   -0.3407815004
     C    -0.7499328400   -3.2644438722   -0.1125546610
     H     2.3387933425   -2.4330887813   -0.4462210409
     H     1.8904489707   -5.1262972473   -0.7232636528
     H    -1.7322814616   -2.8674046521    0.0837557318
     H    -0.8120640760   -5.4233525262   -0.3753720892
     N    -2.0279130872   -0.2117673902    0.0063253993
     H    -2.5906949410    0.0482197645    0.8177251967
     H    -2.6437600800   -0.5483035311   -0.7332034466
     O    -0.1928568459    0.0910334511    2.1844344650
     C    -0.3785932672   -1.0321949488    2.9758626733
     C    -0.6983985526   -0.6545106211    4.2362043993
     C    -0.7234217528    0.7847885589    4.2480850780
     C    -0.4158497545    1.1935462298    2.9944783629
     H    -0.2404129902   -1.9751678476    2.4716685241
     H    -0.8948617136   -1.3148612940    5.0691316113
     H    -0.3088190371    2.1488448920    2.5070009777
     H    -0.9435327923    1.4241750798    5.0913667691
     N     0.1244632267    0.0764219167   -2.0275253975
     H     0.3454610926    0.9036354233   -2.5824362501
     H     0.0015307882   -0.7203472654   -2.6524673828
