45
-1.7354142760670074e+03 frame 129   xyz file generated by TeraChem
    Co    -0.0232214043   -0.0371140615    0.0097993085
     C     1.1574034971    4.2276397514   -0.1243495949
     C     1.2236401898    2.9170038635    0.3488242559
     N     0.3119866268    2.1384734763   -0.3170883589
     C    -0.3027595803    2.9529257486   -1.1810960786
     N     0.1883837989    4.2160743958   -1.0818104971
     H    -0.1096100382    5.0150081637   -1.6359551714
     H     1.7054199528    5.1185833632    0.1499988360
     H     1.8632301050    2.5285819512    1.1269491829
     H    -1.0783480186    2.6741191536   -1.8786725292
     C     4.3758524413   -0.1421788544    0.1142531743
     C     3.1466096918    0.2761813292   -0.3827005060
     N     2.1317036238   -0.3290878871    0.3213978567
     C     2.7307147880   -1.1021878485    1.2325563360
     N     4.0799515930   -1.0083073573    1.1266087538
     H     4.7567087739   -1.4979192431    1.7064149931
     H     5.3887974274    0.1024248022   -0.1739555931
     H     2.9606760940    0.9552709620   -1.2007779167
     H     2.2366097067   -1.7210797493    1.9664084495
     C    -0.0906209196   -4.3997374516    0.2385169182
     C     0.4299693211   -3.1819437828   -0.1619482708
     N    -0.3541068642   -2.1583384892    0.3302534550
     C    -1.3370348444   -2.7482018076    1.0160720425
     N    -1.2014682313   -4.0952639390    0.9771678033
     H    -1.8179337849   -4.7671357118    1.4261090385
     H     0.2318017664   -5.4153426431    0.0571294577
     H     1.3004731144   -3.0018614635   -0.7742781545
     H    -2.1364639285   -2.2479085522    1.5420031896
     C    -4.2443728486    1.2482606010   -0.1745952757
     C    -2.9262872098    1.3555402703    0.2437799858
     N    -2.1838905529    0.3265626254   -0.2920501671
     C    -3.0368148277   -0.3953133075   -1.0234317331
     N    -4.2832068417    0.1378521910   -0.9693085529
     H    -5.1057578385   -0.2251571509   -1.4433962959
     H    -5.1156503850    1.8544410540    0.0304534595
     H    -2.4994002336    2.0988661725    0.8998386656
     H    -2.7976792765   -1.2799053802   -1.5953434128
     P    -0.4329091432    0.4049279602    2.7270795692
     H     0.4617657555   -0.1310643542    3.6807536248
     H    -0.4748815143    1.7235417809    3.2336896109
     H    -1.6303231156   -0.0566098095    3.3187523878
     P     0.3583536931   -0.5005456042   -2.6995025597
     H     1.5557342249   -1.1102003883   -3.1358606537
     H    -0.5401064694   -1.3446202623   -3.3907343286
     H     0.3480019710    0.5715902858   -3.6202429430
