55
-1.3592114970795546e+03 frame 43   xyz file generated by TeraChem
    Co     0.0047613350   -0.0185378244    0.1335046960
     C     0.3547662656    4.3071253850    0.7363473379
     C     0.8876160674    3.0425409149    0.5486950781
     N    -0.1321130911    2.1211959853    0.4434879201
     C    -1.2669215721    2.8162205244    0.5700520677
     N    -1.0025601725    4.1319975700    0.7462706828
     H    -1.6957355640    4.8670092061    0.8567334240
     H     0.8217901025    5.2749215622    0.8527414987
     H     1.9255418436    2.7645349221    0.4674894393
     H    -2.2642638590    2.4093197095    0.5330845114
     C     4.2843807841    0.4097560405   -1.0584145092
     C     2.9053722827    0.4052035658   -1.2685945788
     N     2.2560315176    0.1766115501   -0.0819010823
     C     3.2167625458    0.0393860634    0.8378694322
     N     4.4464138466    0.1774936539    0.2752066107
     H     5.3352218884    0.1164754419    0.7650535531
     H     5.1135595180    0.5599950408   -1.7360312584
     H     2.3724000222    0.5517260739   -2.1934060917
     H     3.0675087632   -0.1563486317    1.8890414433
     C     0.6831290375   -4.2424766893   -0.5983624474
     C     1.1000003873   -2.9435804362   -0.3491921608
     N     0.0009180050   -2.1252749324   -0.2228168501
     C    -1.0670199433   -2.9088559583   -0.3944787247
     N    -0.6839397505   -4.1878321601   -0.6202819393
     H    -1.3070372734   -4.9739861308   -0.7842892453
     H     1.2355812359   -5.1579045481   -0.7569553187
     H     2.1081832942   -2.5691328418   -0.2713406808
     H    -2.0952900181   -2.5853889046   -0.3668630688
     O    -2.2729446573   -0.0657427375    0.1437131987
     C    -3.0871891821    0.1949622450   -1.0248288741
     C    -3.0875331416   -0.3819905190    1.2960844124
     H    -2.4103398173   -0.6026806165    2.1196697706
     H    -3.7225983849   -1.2502969930    1.0880719120
     H    -3.7265910642    0.4701931479    1.5519205677
     H    -2.4009092229    0.4116812115   -1.8401987358
     H    -3.7517841353    1.0469310750   -0.8433117958
     H    -3.6957771982   -0.6838132043   -1.2642479537
     C     0.3056276538   -1.4175696504    4.3339109089
     C     0.2742712614   -1.6171447760    2.9622801726
     N     0.2459738676   -0.4018210796    2.3155095786
     C     0.2547588057    0.5236176308    3.2814361913
     N     0.2915802083   -0.0606393499    4.5036198791
     H     0.3024804197    0.4264145293    5.3954499928
     H     0.3330185383   -2.1121666478    5.1616523813
     H     0.2718717754   -2.5544268017    2.4295956825
     H     0.2369239905    1.5931076503    3.1381688493
     O    -0.0212603049    0.3485661934   -2.2592146053
     C    -0.1330598483    1.6428818684   -2.8923184867
     C    -0.1149037738   -0.7012850552   -3.2476400035
     H     0.1076420001   -1.6448551489   -2.7546214029
     H     0.6125585870   -0.5273236323   -4.0479002299
     H    -1.1204107935   -0.7301274581   -3.6824073425
     H    -0.0049478492    2.4009094152   -2.1229337421
     H    -1.1126601909    1.7540349015   -3.3707386524
     H     0.6459260872    1.7542484612   -3.6545313554
