31
-1.6579288215500565e+03 frame 99   xyz file generated by TeraChem
    Co     0.2185186010    0.2910685224    0.7969729824
     H     2.0354405214    5.1454004370    0.3553413227
     H     0.8471449388    5.1777520969   -0.9808092570
     C     1.0041445017    4.9234057137    0.0702997876
     N     0.7555266828    3.5313896806    0.2591190184
     C     0.5614659926    2.3967782752    0.4232178355
     H     0.3177575875    5.4990325253    0.6960347952
     H     5.2139460666    0.6534075417    1.3575255937
     H     5.2805710522   -1.0389594748    0.7761677576
     C     4.9236975519   -0.0302247273    0.5551906998
     N     3.4995418802   -0.0409806680    0.4730729886
     C     2.3384780710    0.0109218743    0.4845153027
     H     5.3390019022    0.3060718568   -0.3977937578
     H    -1.0408923976   -4.4942321290    2.4990837046
     H    -1.2838512278   -4.6753579155    0.7365864920
     C    -0.5940159080   -4.3382185504    1.5141780629
     N    -0.3304647376   -2.9478528895    1.3327747606
     C    -0.1272636263   -1.8144016312    1.1718310573
     H     0.3437903811   -4.8943834942    1.4431786833
     H    -4.8999847878    0.2541027041    1.9972748828
     H    -4.8509352544    1.5971723486    0.8206153023
     C    -4.4875026254    0.5911694124    1.0433368739
     N    -3.0633720525    0.6111704324    1.1243401787
     C    -1.9019831474    0.5671725970    1.1115231301
     H    -4.7740382076   -0.0960308209    0.2427171962
     S     0.6333285356    0.6878398248    3.3021284464
     C     2.1467127000    1.3874077548    3.2859044069
     N     3.2212485662    1.8625567845    3.2381456403
     S    -0.1980643961   -0.1037090398   -1.7063296234
     C    -1.7025395045   -0.8227484399   -1.6851687918
     N    -2.7702261619   -1.3124992514   -1.6332715091
