25
-1.2301918919542811e+03 frame 97   xyz file generated by TeraChem
    Cr     0.0037447644   -0.0105979226    0.0208129655
     C    -1.0631783533    2.8430034495   -0.3316541711
     O    -0.1411176218    2.0285707568   -0.3079124831
     H    -0.8492605008    3.8974445844   -0.5465487044
     H    -2.1000518899    2.5368931437   -0.1393591035
     C     2.8354663471    1.0374655656   -0.4930258834
     O     2.0526049575    0.1190021703   -0.2546360759
     H     3.9075750707    0.8239426482   -0.5869995877
     H     2.4840487295    2.0704777926   -0.6146166929
     C     1.0737575616   -2.8620713437    0.3685432008
     O     0.1507304903   -2.0485824613    0.3482520579
     H     0.8614568160   -3.9169770186    0.5826236482
     H     2.1097866926   -2.5544994520    0.1739848391
     C    -2.8292779888   -1.0608775129    0.5317088084
     O    -2.0464974610   -0.1422344497    0.2929699219
     H    -3.9017307280   -0.8478687377    0.6229980375
     H    -2.4774918472   -2.0934252279    0.6561476607
     P     0.3967155639    0.5148004901    2.9933722281
     H     1.6000358692    1.1027512061    3.4468030468
     H    -0.4910029753    1.3746757584    3.6801757150
     H     0.3607532048   -0.5538105636    3.9185143964
     P    -0.4182393073   -0.5130271493   -2.9544308150
     H     0.6870391182   -0.6354127861   -3.8274947499
     H    -1.1039373334   -1.6773342097   -3.3712390682
     H    -1.1556673412    0.4129533781   -3.7276938226
