49
-1.2564464006463800e+03 frame 61   xyz file generated by TeraChem
    Cr    -0.0373685094    0.0049843586   -0.0162683040
     C     1.1804984049    4.1630625829    0.0767102619
     C     1.3333962399    2.8524857340   -0.2780259270
     N     0.2743425676    2.1086434940    0.2206295887
     C    -0.5053975799    2.9677416581    0.8689820550
     N     0.0098432101    4.2137996298    0.8046885112
     H    -0.3971385334    5.0426611472    1.2188810226
     H     1.7795403008    5.0392857715   -0.1169285162
     H     2.1265608265    2.3978295016   -0.8494361693
     H    -1.4259590322    2.7295696998    1.3789104485
     C     4.2134149012   -0.4967340451   -0.6876585375
     C     2.9289244862   -0.2877790899   -1.1083522466
     N     2.0767522255   -0.2944995115   -0.0133159887
     C     2.8422686372   -0.5039191668    1.0514828582
     N     4.1352326100   -0.6311317208    0.6823124939
     H     4.9137232318   -0.7980881368    1.3075355895
     H     5.1486374419   -0.5596887420   -1.2223073958
     H     2.5562378246   -0.1299264740   -2.1080926490
     H     2.4998586079   -0.5625111143    2.0726829621
     C    -0.0430757005   -4.2482040555   -0.8568578130
     C     0.4986734105   -2.9947707522   -0.9071819259
     N    -0.3412907952   -2.0987160276   -0.2630577251
     C    -1.3768617482   -2.8113130030    0.1696149182
     N    -1.2305810591   -4.1097125124   -0.1688513719
     H    -1.8819037962   -4.8531959595    0.0485403471
     H     0.2976289735   -5.1991010618   -1.2361179254
     H     1.4280274526   -2.6808104711   -1.3547556605
     H    -2.2277563034   -2.4288752857    0.7115925786
     C    -4.2933434127    0.5243010162    0.6625414830
     C    -3.0117576352    0.2982837082    1.0855063543
     N    -2.1564176321    0.3065911134   -0.0074508693
     C    -2.9162148219    0.5342955360   -1.0727662149
     N    -4.2092890840    0.6709238614   -0.7059615312
     H    -4.9838996170    0.8523674518   -1.3322691895
     H    -5.2298044588    0.5920112613    1.1946459312
     H    -2.6420976029    0.1284274105    2.0848772931
     H    -2.5671533238    0.5992385224   -2.0916180359
     C    -0.0202379172   -0.1571532828    3.8910392287
     N    -0.0695024214   -0.1012301953    2.7320936928
     C     0.0434130172   -0.2268137892    5.3482340326
     H    -0.9640155786   -0.1702931311    5.7723766012
     H     0.6378039207    0.6047250154    5.7395800840
     H     0.5028578506   -1.1700906002    5.6599921734
     C     0.0259788781    0.1344004350   -3.8872267148
     N    -0.0330334461    0.1273651475   -2.7276228122
     C     0.1055550852    0.1435357750   -5.3450579909
     H    -0.8994692232    0.1249832791   -5.7779921464
     H     0.6557460459   -0.7347743968   -5.6968859279
     H     0.6202799323    1.0467627430   -5.6873760274
