39
-1.6270030381659619e+03 frame 41   xyz file generated by TeraChem
    Cr     0.1620630384    0.0010811642    0.3858250525
     O     0.3618926279    2.5103926212    0.4623070771
     C     1.5484537508    3.1194630054   -0.0329062614
     C    -0.8152695074    3.0790849644   -0.1226955366
     H    -1.6693272776    2.5206638909    0.2638856121
     H    -0.7850809112    2.9711384522   -1.2128749037
     H    -0.8941170692    4.1409645650    0.1503155070
     H     2.3835462617    2.6237911750    0.4641264239
     H     1.5594739408    4.1932486410    0.2031899657
     H     1.6329059104    2.9756147247   -1.1169854116
     O     2.5548158477    0.0129942992    0.6225293274
     C     3.4937358517    0.0545353493   -0.4592429991
     C     3.2069445185    0.0468442519    1.8916054188
     H     2.4186947224   -0.0059189241    2.6386162525
     H     3.7795590612    0.9777175747    2.0073194539
     H     3.8907402831   -0.8070673894    1.9961712412
     H     2.9211865802    0.0495078189   -1.3860663878
     H     4.1582409086   -0.8185101369   -0.4108954697
     H     4.0982466945    0.9689620600   -0.3933744277
     O     0.5209949463   -2.5686001336    0.3950981331
     C    -0.5689197629   -3.2455781459   -0.2385357544
     C     1.7784074449   -3.0653844425   -0.0392527550
     H     2.5422570566   -2.5253830744    0.5203902387
     H     1.9211467630   -2.8883566554   -1.1139094735
     H     1.8620792095   -4.1428122190    0.1651837533
     H    -1.4842651897   -2.8076695588    0.1566203873
     H    -0.5241152335   -4.3215445675   -0.0161503148
     H    -0.5345993652   -3.0890603677   -1.3240120587
    Cl    -2.1791390948   -0.2757986808    0.6660214851
     O     0.1972735738   -0.0534614764    2.6046436765
     C    -0.3786059941    1.0966788113    3.2552476637
     C    -0.2107386905   -1.2701070046    3.2620824222
     H     0.3051786243   -2.0898526075    2.7655853494
     H    -1.2921193439   -1.3962018602    3.1561635654
     H     0.0748132952   -1.2177980469    4.3198070195
     H    -0.0027629336    1.9745749382    2.7312364041
     H    -0.0648057854    1.1088704109    4.3061076204
     H    -1.4688944889    1.0509199283    3.1762231662
    Cl     0.4442384425    0.2455289659   -1.9324835625
