24
-1.8779715034558344e+03 frame 73   xyz file generated by TeraChem
    Cr    -0.0522820878    0.0470708055   -0.0254430327
     P     0.3830193560    2.6305629395    0.1520066217
     H    -0.6494301690    3.4760980141    0.6066238698
     H     1.4195462565    3.0388487051    1.0154814572
     H     0.7583960893    3.3153763561   -1.0217632387
     P     2.5517394100   -0.3549983592   -0.3045993656
     H     3.3928248214    0.7619142174   -0.4879582786
     H     3.2452121802   -1.0031435187    0.7374816441
     H     2.9800210013   -1.1425200695   -1.3936134640
     P    -0.5124940724   -2.5373346623   -0.2587348267
     H     0.5717163295   -3.4176881010   -0.4545695646
     H    -1.1649921921   -3.2012386642    0.7994466460
     H    -1.3324029477   -2.9278412174   -1.3368161551
     P    -2.6444800522    0.4671157704    0.1473808450
     H    -3.5047786015   -0.6410179412    0.2858094225
     H    -3.0931893124    1.2548612133    1.2263790317
     H    -3.2860466423    1.1312405848   -0.9185666083
     P     0.2029013157   -0.2148440264    2.9402430687
     H     1.3363170465    0.3192818550    3.5955968555
     H    -0.7760963153    0.3326698629    3.8009328684
     H     0.2519816956   -1.5029111847    3.5211263612
     O    -0.0482162610    0.0576342535   -2.4708672961
     H     0.4959486519   -0.4609756556   -3.0894503460
     H    -0.5979653747    0.6173661837   -3.0474001036
