28
-7.1348752644068838e+02 frame 60   xyz file generated by TeraChem
    Cr     0.0927772246    0.1004063850   -0.0716821884
     C     0.5294342889    3.3024208872    0.4557906930
     N     0.4062056002    2.1677040878    0.2576590701
     C     0.6804470582    4.7281059609    0.7045238195
     H     0.6737569850    5.2739657942   -0.2449713574
     H     1.6270295114    4.9190412489    1.2208758887
     H    -0.1471473770    5.0855653190    1.3265288781
     C     3.2784207577   -0.4061878415    0.3883361302
     N     2.1439212318   -0.2409192958    0.2226357035
     C     4.7032040352   -0.6148447552    0.5960255549
     H     5.1699097916    0.3157294757    0.9358581418
     H     5.1733496456   -0.9296028476   -0.3417374701
     H     4.8590693031   -1.3903348549    1.3534740740
     C    -0.3944740562   -3.1039555234   -0.5905651738
     N    -0.2316687261   -1.9698388634   -0.4166247457
     C    -0.6002204912   -4.5280036646   -0.8083263460
     H     0.3598284090   -5.0531571921   -0.7648245942
     H    -1.0543924409   -4.6928649705   -1.7912872847
     H    -1.2644782453   -4.9305984455   -0.0360695910
     O    -1.9188850144    0.5291472416   -0.3819189189
     H    -2.1466736067    0.5757046413   -1.3282652889
     H    -2.6061267945    0.0130594795    0.0727669697
     O    -0.6305564910   -0.2613359000    2.1856294625
     H    -0.7754088246    0.4646327878    2.8148873371
     H    -0.4359044454   -1.0409913354    2.7312023751
     O     0.0332190393    0.5158063902   -2.4726016138
     H     0.1948451184   -0.1563226837   -3.1555909274
     H     0.2999314017    1.3603576916   -2.8724275315
