45
-1.6922263851801663e+03 frame 78   xyz file generated by TeraChem
    Cr     0.0546203390    0.0068278454    0.2878452320
     O     0.5000292406    2.5211135613    0.2940123244
     C    -0.5402426697    3.3586599192   -0.0965227496
     C    -0.0682997158    4.3453775827   -0.8954294852
     C     1.3491842666    4.1354228935   -1.0209573377
     C     1.6519865489    3.0353500185   -0.2909546075
     H    -1.5035271713    3.1525072454    0.3427521134
     H    -0.6462011635    5.1512253584   -1.3269690891
     H     2.5724959704    2.5254974126   -0.0518757144
     H     2.0496532347    4.7511458812   -1.5684384775
     O     2.1487021645   -0.3163215209    0.2434520535
     C     3.0541156526    0.1271207184    1.2231583560
     C     4.3154617168   -0.0999874160    0.8009344607
     C     4.2318536418   -0.7181935563   -0.4988366525
     C     2.9237905720   -0.8371304305   -0.8048778979
     H     2.6065428088    0.5323968020    2.1162876704
     H     5.2183053385    0.1305138873    1.3501319919
     H     2.3753276640   -1.2776844007   -1.6206667873
     H     5.0595231367   -1.0430456464   -1.1144740192
     O     0.0241724161   -2.4525062712    0.2510069840
     C     0.9711329184   -3.3547615579    0.7400043901
     C     0.6852756290   -4.6032551887    0.3073273593
     C    -0.4996354981   -4.5083993538   -0.5042207197
     C    -0.8645012208   -3.2069357699   -0.5137313521
     H     1.7458404803   -2.9312929223    1.3594164836
     H     1.2448755927   -5.5001412430    0.5346978232
     H    -1.6828789472   -2.6641472313   -0.9612894765
     H    -1.0080072012   -5.3190633135   -1.0077849473
     P    -2.5272387527    0.2193828069    0.6554197665
     H    -3.1906692509   -0.9595158890    1.0493372087
     H    -2.8928845266    1.0719527898    1.7159842772
     H    -3.4055054617    0.6747861913   -0.3478503103
     O     0.0515941681    0.0201265986    2.4435261990
     C    -0.2759796978   -1.0533824831    3.2933599678
     C    -0.3170166505   -0.6168334960    4.5686430669
     C    -0.0057810035    0.7908125978    4.5554771733
     C     0.2092369967    1.1482791568    3.2724955220
     H    -0.4107137890   -2.0032031625    2.8026597054
     H    -0.5374295058   -1.2215520845    5.4378157582
     H     0.4630155121    2.0631328621    2.7622736995
     H     0.0505084930    1.4477123674    5.4129305721
     P    -0.1723486883    0.4083712450   -2.2877159223
     H     0.3963884929   -0.5085325859   -3.1937647814
     H    -1.4582765826    0.5309692373   -2.8494460280
     H     0.4198961637    1.6085848981   -2.7259365129
