40
-9.7962878298596274e+02 frame 99   xyz file generated by TeraChem
    Cr    -0.0005598021   -0.0032934133    0.1983525827
     H     1.7164756468    4.9097836261    0.1580305863
     H     0.8739111387    4.8637682111   -1.4201628835
     C     0.7865179101    4.6481473843   -0.3524695027
     N     0.5376338531    3.2503405833   -0.1788339845
     C     0.3409518942    2.1143071081   -0.0431104903
     H    -0.0439082124    5.2142810257    0.0762668647
     H     5.1910499624    0.0094378765    0.4807712204
     H     4.9354814043   -1.6893320681   -0.0168934677
     C     4.6856287027   -0.6474195367   -0.2313096801
     N     3.2717435358   -0.4701953296   -0.1053787259
     C     2.1249073300   -0.3194053603   -0.0053122757
     H     4.9863819781   -0.3937869737   -1.2507882379
     H    -0.7526891766   -5.1465062058    0.6271621557
     H    -1.7644749849   -4.7902758345   -0.8056948183
     C    -0.7810065552   -4.6560606362   -0.3488534532
     N    -0.5350066855   -3.2577073197   -0.1761313850
     C    -0.3401682442   -2.1213167135   -0.0406993284
     H    -0.0098141988   -5.0758304335   -0.9992073904
     H    -5.1939881885   -0.0180699005    0.4545116272
     H    -4.9370991560    1.6801582975   -0.0443700831
     C    -4.6855832387    0.6380941874   -0.2560870924
     N    -3.2721999758    0.4619339241   -0.1231604274
     C    -2.1257817328    0.3118238515   -0.0173015845
     H    -4.9813748955    0.3830021043   -1.2766532092
     H    -0.2975471434   -0.9759700242    5.5283558899
     H     0.9628137367    0.2916345682    5.5295083361
     C    -0.0308641935    0.0195853917    5.1654722030
     N    -0.0210802373    0.0111434486    3.7356608969
     C    -0.0135990461    0.0047623075    2.5717072765
     H    -0.7651484538    0.7494742294    5.5147991782
     O     0.0007243476   -0.0021181254   -2.5161951053
     C    -0.7579277769    0.8013781212   -3.3449126023
     C    -0.4899523445    0.5241122866   -4.6441324729
     C     0.4989767636   -0.5194253920   -4.6445627969
     C     0.7622787237   -0.8020888817   -3.3455683535
     H    -1.4163149925    1.4963759852   -2.8481019145
     H    -0.9354965297    0.9979301363   -5.5076724119
     H     1.4186926820   -1.4993720517   -2.8493626718
     H     0.9474307910   -0.9898126651   -5.5084649726
