52
-1.2291572252961782e+03 frame 60   xyz file generated by TeraChem
    Cr    -0.0740863960    0.0906212765   -0.0568543143
     C     0.1750182789    3.8250508763   -0.0160960439
     N     0.0193417212    2.6765930673   -0.0818941918
     C     0.3665133770    5.2691086432    0.0656917483
     H    -0.0142713862    5.7500683604   -0.8408858553
     H     1.4310989115    5.5007909601    0.1707183798
     H    -0.1705143268    5.6705132743    0.9309458526
     C     3.1580373820   -0.2625112185   -0.6068857162
     N     2.0247006122   -0.1380998255   -0.4056846705
     C     4.5838063930   -0.4185379084   -0.8599246393
     H     5.0744072015    0.5599813914   -0.8414922196
     H     4.7402554038   -0.8789891681   -1.8407241248
     H     5.0322151710   -1.0550377648   -0.0902989533
     C    -0.0305622953   -3.8105335276   -0.1397417913
     N    -0.0925834722   -2.6549925991   -0.0439753122
     C     0.0433592689   -5.2635420596   -0.2578086923
     H     1.0690031301   -5.5716423547   -0.4835535564
     H    -0.6140836341   -5.6089931741   -1.0618555219
     H    -0.2696515826   -5.7328666452    0.6801873922
     C    -4.9356055130    0.1231143580    0.7947395765
     C    -4.3456301829    1.1391940251    0.0418467342
     C    -2.9738207920    1.1009465245   -0.1798489158
     N    -2.1832881397    0.1198522564    0.3063049142
     C    -2.7609918872   -0.8597044306    1.0357875941
     C    -4.1252540863   -0.8945094160    1.2992586514
     H    -6.0046733776    0.1246805976    0.9843930559
     H    -4.9356771808    1.9504624063   -0.3709305768
     H    -2.4779047587    1.8722587621   -0.7580391028
     H    -2.0965930928   -1.6318340781    1.4071808212
     H    -4.5391963709   -1.7044394135    1.8903480186
     C     0.7774047900    0.0357306265    4.8180159643
     C     1.2439517530   -0.9960879550    4.0029136686
     C     0.9809801992   -0.9461707835    2.6389061262
     N     0.2891200444    0.0618030476    2.0653102120
     C    -0.1597947441    1.0562630247    2.8602019723
     C     0.0623895171    1.0808350596    4.2322530557
     H     0.9664349811    0.0254055250    5.8871370149
     H     1.8032968100   -1.8296992740    4.4141024150
     H     1.3207512122   -1.7304371971    1.9721088027
     H    -0.7093958421    1.8497907757    2.3673533586
     H    -0.3211515987    1.9037433195    4.8258949231
     C    -0.8700071711   -0.0181375697   -4.9325746575
     C    -0.1316845552    1.0183001723   -4.3597705835
     C     0.0624317293    1.0225889178   -2.9832994549
     N    -0.4347621747    0.0637048422   -2.1735462228
     C    -1.1497180377   -0.9351543463   -2.7338245110
     C    -1.3879869612   -1.0115864056   -4.1011613617
     H    -1.0398909734   -0.0494769696   -6.0045021257
     H     0.2875523728    1.8138569689   -4.9665054063
     H     0.6208520875    1.8143379565   -2.4964914211
     H    -1.5341988190   -1.6861259808   -2.0531320160
     H    -1.9710972267   -1.8340158656   -4.5015471594
