22
-1.3445442215531134e+03 frame 91   xyz file generated by TeraChem
    Cr    -0.2662188540   -0.1344908793    0.2255639446
     P     0.1043458920    2.4868921406    0.6136888188
     H    -0.9040116995    3.1518401445    1.3419264779
     H     1.2246139499    2.8632558354    1.3817599911
     H     0.2424072874    3.3919083178   -0.4595545734
     P     2.3220237570   -0.5002628588    0.2769149314
     H     3.1500997067    0.5854293586   -0.0717738947
     H     2.9331904846   -0.8921763554    1.4852611980
     H     2.8412643054   -1.4845591438   -0.5878606378
     P    -0.6548518278   -2.7645201855    0.1026902316
     H     0.3322665891   -3.6882893888    0.5015646270
     H    -1.7338251351   -3.2038963390    0.8956037962
     H    -1.0252102004   -3.3342064186   -1.1331528827
     O    -2.3053434687    0.0417662111   -0.1373047411
     H    -2.5119371188    0.2175983056   -1.0734079032
     H    -3.0687916870    0.3009954585    0.4067887930
     O    -0.3776634645   -0.1133202467    2.6412747685
     H    -1.0877962460    0.2456904776    3.2024747489
     H     0.1902563137   -0.6067207063    3.2592482905
     O    -0.3273086430    0.1776186492   -2.1998694873
     H    -0.2536097679   -0.5365674051   -2.8564722634
     H    -0.1612646133    0.9969021745   -2.6983119503
