47
-1.3216156813258904e+03 frame 33   xyz file generated by TeraChem
    Cr    -0.0648348132   -0.0163375790    0.2303845293
     O    -0.1046769596    2.1535979515    0.1926735546
     C     1.0027703977    2.8153005253   -0.4641187462
     C    -1.3486036818    2.8255911385   -0.1221568724
     H    -2.1191357229    2.3870052771    0.5069396191
     H    -1.5895838407    2.6756237410   -1.1787519061
     H    -1.2408007232    3.8917418014    0.0998456595
     H     1.9111650353    2.3436071310   -0.0984807367
     H     0.9924903595    3.8763052105   -0.1965046691
     H     0.9173645624    2.6899430975   -1.5476197884
     O     2.4034491411   -0.0142494019    0.1890407450
     C     3.1316263590   -0.1058091986   -1.0500554858
     C     3.2839763112    0.1422139861    1.3059792917
     H     2.6666548231    0.1740566811    2.2051734577
     H     3.8568212632    1.0744453312    1.2193870711
     H     3.9834161395   -0.7010334502    1.3710395531
     H     2.3904552883   -0.1982490808   -1.8443158962
     H     3.7918884074   -0.9817033404   -1.0390637814
     H     3.7356180178    0.7974201592   -1.2023325724
     O    -0.0929093861   -2.2206012504    0.2962912615
     C    -1.3261591058   -2.9184450697    0.0053599560
     C     1.0278533305   -2.9149076021   -0.2971791248
     H     1.9254959136   -2.3965245697    0.0310878575
     H     0.9452717960   -2.8827733511   -1.3873273662
     H     1.0361540370   -3.9497301051    0.0599540384
     H    -2.1144836966   -2.4256708389    0.5692770024
     H    -1.2273553417   -3.9610906862    0.3241446993
     H    -1.5369915448   -2.8623759996   -1.0666587296
     O    -2.6306397588   -0.0157197096    0.6290811788
     C    -3.5651434557   -0.0437544344   -0.4581253784
     C    -3.2807816909   -0.0112748896    1.8979536702
     H    -2.4952527323    0.0314284433    2.6515047139
     H    -3.8786588930   -0.9221315334    2.0374682104
     H    -3.9397122300    0.8616781054    1.9998475587
     H    -2.9768978322   -0.0568968896   -1.3746146258
     H    -4.2105771400    0.8437313829   -0.4311566228
     H    -4.1918380638   -0.9428646384   -0.3996170514
     O     0.0068295569    0.0245597357    2.4251004126
     C     0.1060464438    1.2244652756    3.2180049285
     C     0.1566726809   -1.1644760574    3.2285429226
     H     0.0761593831   -2.0062968447    2.5437540313
     H    -0.6365369630   -1.2016087544    3.9830551900
     H     1.1348198568   -1.1625317577    3.7222671294
     H    -0.0046617158    2.0577894692    2.5280916966
     H     1.0816425647    1.2676255389    3.7150006438
     H    -0.6896816329    1.2388233722    3.9707953666
    Cl    -0.3669508174   -0.2206961348   -2.0673008597
