24
-1.0578090489100773e+03 frame 97   xyz file generated by TeraChem
    Cr     0.1412237845    0.0132039694    0.0409169153
     C    -0.9596555351    2.8072802180   -0.4534762201
     O    -0.0068409429    2.0446188516   -0.2911731073
     H    -0.7728230690    3.8688988041   -0.6572083338
     H    -1.9954886749    2.4485540583   -0.3965949974
     C     2.9644119603    1.0793900101   -0.4419437484
     O     2.1856907824    0.1492523165   -0.2361404873
     H     4.0376932596    0.8740088472   -0.5410585947
     H     2.6083216332    2.1142640327   -0.5305494944
     C     1.2103840099   -2.8392001928    0.3811761405
     O     0.2868435787   -2.0284691233    0.3461674010
     H     2.2498782998   -2.5295898735    0.2085948421
     H     0.9968035427   -3.8958461986    0.5856462168
     C    -2.6845090783   -0.9878836590    0.6430896587
     O    -1.9132289425   -0.1072631582    0.2663072211
     H    -3.7597420908   -0.7772523378    0.7016232036
     H    -2.3188792934   -1.9851876594    0.9201507477
     C     0.5076551366    0.4324650315    3.5752891549
     O     0.1898881199    0.0796973600    2.4488766494
     H     1.2694239013    1.2102594231    3.7461592080
     H     0.0390966731   -0.0196618708    4.4632036248
     S    -0.4340969582   -0.2775819501   -2.8941217270
     H     0.6841658516   -0.5189102324   -3.6085855377
     H    -0.9747151769   -1.4866380866   -3.1489758319
