59
-1.5026053891805091e+03 frame 68   xyz file generated by TeraChem
    Cr    -0.0031559300    0.0454502043    0.0003010184
     O    -0.0026667603    2.2561116060    0.0003497302
     C    -1.1117234529    3.0942304055   -0.1834230843
     C    -0.7137095771    4.3830003402   -0.1181867551
     C     0.7087146158    4.3829303964    0.1178348868
     C     1.1065043918    3.0941196758    0.1837203244
     H    -2.0486936170    2.5844967921   -0.3372958987
     H    -1.3513693221    5.2500056286   -0.2235490558
     H     2.0434538433    2.5844008371    0.3377152119
     H     1.3465004591    5.2498836992    0.2228566354
     O     2.4806285688    0.0461865387    0.3512580275
     C     3.1401620046   -0.1083012668    1.5673420086
     C     4.4721455780   -0.2198526747    1.3577439692
     C     4.6814644405   -0.1304649442   -0.0637231112
     C     3.4644286380    0.0285906045   -0.6329405593
     H     2.5131863674   -0.1071241526    2.4440069370
     H     5.2301379520   -0.3467916421    2.1182666720
     H     3.1205849323    0.1430021166   -1.6480007224
     H     5.6282569827   -0.1769029821   -0.5838120862
     O    -0.0023436978   -2.1587855407    0.0004425519
     C     1.0987490854   -2.9960337758    0.2292307744
     C     0.7042001253   -4.2848617308    0.1458614351
     C    -0.7071716877   -4.2851352985   -0.1493885797
     C    -1.1027469915   -2.9964552459   -0.2301262726
     H     2.0279772809   -2.4878464397    0.4290347860
     H     1.3371230810   -5.1517664575    0.2773087470
     H    -2.0324206178   -2.4885568177   -0.4286620716
     H    -1.3394138013   -5.1522788889   -0.2825242224
     O    -2.4864579491    0.0462769869   -0.3510296138
     C    -3.4702286715    0.0277179813    0.6332032449
     C    -4.6869825202   -0.1339114223    0.0641181745
     C    -4.4775121351   -0.2241095704   -1.3572691577
     C    -3.1457387201   -0.1103085404   -1.5669852431
     H    -3.1265986194    0.1437860855    1.6481460364
     H    -5.6336881079   -0.1815512727    0.5842573649
     H    -2.5188377671   -0.1085357173   -2.4437021185
     H    -5.2352845811   -0.3529585240   -2.1176906606
     C    -0.7704227350    0.0466883563    4.9016223853
     C    -0.7196892887   -1.1517916238    4.1891697133
     C    -0.4962217839   -1.1151171271    2.8185655270
     N    -0.3243266794    0.0412008350    2.1293013085
     C    -0.3718097901    1.1997798198    2.8341516832
     C    -0.5904188842    1.2421280178    4.2053979855
     H    -0.9435816823    0.0487427469    5.9734481315
     H    -0.8492387365   -2.1091391656    4.6824488376
     H    -0.4473908751   -2.0309755751    2.2466512997
     H    -0.2198498096    2.1107317363    2.2726432849
     H    -0.6154853999    2.2011204589    4.7117151513
     C     0.7648438139    0.0468558127   -4.9009915313
     C     0.7134917551   -1.1516663414   -4.1886628043
     C     0.4897758017   -1.1150619320   -2.8180936961
     N     0.3181779735    0.0412465605   -2.1287425608
     C     0.3662880370    1.1998830319   -2.8334607055
     C     0.5851895160    1.2422833120   -4.2046572576
     H     0.9381976784    0.0489588899   -5.9727858179
     H     0.8427619019   -2.1090151561   -4.6820112163
     H     0.4404981564   -2.0309750873   -2.2463098923
     H     0.2145609575    2.1108489395   -2.2719157445
     H     0.6107428987    2.2013214623   -4.7108623043
