49
-1.2714556070649560e+03 frame 106   xyz file generated by TeraChem
    Cr     0.0235902620    0.0018714494    0.0001742954
     O     0.0161620963    2.0928736250    0.3411492985
     C    -1.0035140928    2.8516388789    0.9351991966
     C    -0.6512886033    4.1537868904    0.9256515037
     C     0.6455317051    4.2464622393    0.3025111093
     C     1.0203697185    2.9962844764   -0.0383678358
     H    -1.8601238248    2.2932550572    1.2743765966
     H    -1.2404326316    4.9720628433    1.3162659905
     H     1.8905106314    2.5546582041   -0.4954887936
     H     1.2207696509    5.1471889355    0.1380982587
     O     2.5238609723    0.0023106998   -0.0025286608
     C     3.3628328807    0.4919943291    0.9953479828
     C     4.6562535096    0.3182871075    0.6407873834
     C     4.6541957040   -0.3170011805   -0.6509966588
     C     3.3596567333   -0.4885426973   -1.0024877388
     H     2.8687975819    0.9267346203    1.8499660272
     H     5.5222044324    0.6054109340    1.2210585042
     H     2.8629266503   -0.9214298844   -1.8564833162
     H     5.5182783523   -0.6053207332   -1.2334524561
     O     0.0157275630   -2.0892207138   -0.3410563660
     C     1.0193983903   -2.9931853853    0.0386303818
     C     0.6435153735   -4.2432579743   -0.3015079221
     C    -0.6534568678   -4.1499437185   -0.9242649923
     C    -1.0047510831   -2.8475440915   -0.9343634421
     H     1.8901005369   -2.5520072713    0.4951345288
     H     1.2181804596   -5.1443105349   -0.1368589063
     H    -1.8610280469   -2.2886857822   -1.2736259291
     H    -1.2433482679   -4.9679766682   -1.3142679778
     O    -2.5015526495    0.0021477855    0.0022413445
     C    -3.3373082858   -0.7945325456    0.7791526294
     C    -4.6318351111   -0.5135879154    0.5048874296
     C    -4.6321339411    0.5189039943   -0.4981210528
     C    -3.3377613120    0.7993036384   -0.7736837150
     H    -2.8411864810   -1.4929364828    1.4342322840
     H    -5.4968279925   -0.9799221515    0.9558110583
     H    -2.8419032481    1.4981307153   -1.4285082111
     H    -5.4974128879    0.9857304806   -0.9479896989
     H    -0.0411152756   -1.8259833779    4.8940317691
     H     0.8780114831   -0.3100989827    5.1449963259
     C    -0.0212117562   -0.7496312287    4.7065613865
     N    -0.0049446173   -0.5251215646    3.2924308541
     C     0.0076636075   -0.3440580045    2.1468753868
     H    -0.9118210329   -0.2782140999    5.1292651973
     H     0.3621489290   -0.1410739830   -5.2086777529
     H    -1.0755832634    0.9092612115   -5.0240832757
     C    -0.0431190163    0.7414928150   -4.7078784619
     N    -0.0215654138    0.5225581080   -3.2929085075
     C    -0.0034987442    0.3454479420   -2.1468056704
     H     0.5664516928    1.6183128982   -4.9394515102
