55
-1.3009785090267305e+03 frame 50   xyz file generated by TeraChem
    Cr     0.0039088589    0.2335219652   -0.0439697458
     C     1.2605100099    4.3703160816    0.4164496858
     C     1.4769103124    3.0511212191    0.1328678910
     N     0.2900833245    2.3422647130    0.2739500303
     C    -0.6265513369    3.2366412571    0.6405040299
     N    -0.0767810994    4.4645956848    0.7381458705
     H    -0.5663609170    5.3107330461    1.0025948019
     H     1.9176329721    5.2262969459    0.4181484945
     H     2.3946541580    2.5717999487   -0.1660633051
     H    -1.6656905033    3.0306799988    0.8435254880
     C     4.2527810202   -0.2184934530   -0.6656395532
     C     2.9701271362   -0.0137988211   -1.0941577113
     N     2.1094552052   -0.0479174678   -0.0053423934
     C     2.8683065044   -0.2682749984    1.0643553916
     N     4.1641860187   -0.3770981933    0.7018146491
     H     4.9397433611   -0.5471688468    1.3306564960
     H     5.1929002603   -0.2635498999   -1.1937858887
     H     2.6030318473    0.1638207495   -2.0924554720
     H     2.5178191125   -0.3471246466    2.0812975050
     C     0.1092057544   -4.0512429864   -0.8006043031
     C     0.6877204987   -2.8177202212   -0.6963798900
     N    -0.2775811428   -1.8747660772   -0.3651024926
     C    -1.4247737111   -2.5458366878   -0.2720066975
     N    -1.2276737120   -3.8560271153   -0.5256438535
     H    -1.9429896617   -4.5727910478   -0.5150575544
     H     0.5155626304   -5.0218448039   -1.0400581260
     H     1.7197606283   -2.5437204817   -0.8418715582
     H    -2.3866447845   -2.1279997058   -0.0205594434
     C    -4.2575624070    0.6728298777    0.5706675147
     C    -2.9783061877    0.4480498653    1.0012242615
     N    -2.1097090347    0.5163480557   -0.0801517667
     C    -2.8598910338    0.7762974006   -1.1473451337
     N    -4.1584090990    0.8777591429   -0.7901265338
     H    -4.9288010217    1.0732136409   -1.4182623655
     H    -5.2015450514    0.7038335348    1.0931403748
     H    -2.6164547073    0.2343361421    1.9949480998
     H    -2.4994406572    0.8878231106   -2.1581762324
     O     0.0146819873   -0.1944707071    2.6375943040
     C     0.0007683770    0.8388360623    3.6276041735
     C    -0.0767308593   -1.4958099321    3.2269152041
     H    -0.0159909013   -2.2172761208    2.4122719297
     H    -1.0268375626   -1.6188565707    3.7632396065
     H     0.7490938233   -1.6629818795    3.9305219835
     H     0.1213445017    1.7849777812    3.0998784880
     H     0.8262459776    0.7085169104    4.3391225270
     H    -0.9467097700    0.8383229969    4.1822669573
     O    -0.0024040789    0.6357223252   -2.7101688889
     C    -0.0103616100   -0.4268868470   -3.6701465302
     C     0.2237554787    1.9055003758   -3.3325461459
     H     0.2461561446    2.6495223476   -2.5364345898
     H    -0.5797894132    2.1405613181   -4.0424908212
     H     1.1818293429    1.9130995142   -3.8682290107
     H    -0.2218465867   -1.3475078364   -3.1265544620
     H     0.9627424509   -0.5084230493   -4.1716597909
     H    -0.7850135207   -0.2593854346   -4.4295892512
