23
-2.2377795629789985e+03 frame 50   xyz file generated by TeraChem
    Cr    -0.0406905385    0.0409817279    0.0090215411
     P    -0.4654821333    2.9527425050    0.4792654140
     H    -1.6921535690    3.4263720277    0.9991008651
     H     0.3905779411    3.6598297812    1.3549823819
     H    -0.3763093114    3.8388714740   -0.6184128913
     P     2.5472014988    0.4485566045   -0.4459987109
     H     3.0319879638    1.7723686204   -0.4789093577
     H     3.4765962710   -0.1222070610    0.4482619814
     H     3.0745332198   -0.0283007251   -1.6633930917
     P     0.4074119667   -2.8692581360   -0.4874792151
     H     1.7006321950   -3.4311642509   -0.3808197076
     H    -0.2792451335   -3.8407638434    0.2768544418
     H     0.0894794150   -3.3827663976   -1.7654108005
     P    -2.6486110036   -0.3681408306    0.3236764093
     H    -3.2030056981   -1.5618502084   -0.1818952205
     H    -3.1816315703   -0.3957157465    1.6294262592
     H    -3.5225474458    0.5693730621   -0.2633890021
     P     0.3563657687   -0.3240558201    2.5684527153
     H     1.6686595273   -0.2225681436    3.0731568525
     H    -0.3093885812    0.5392963425    3.4621667127
     H    -0.0138785578   -1.5691236653    3.1163731266
     C    -0.3848506912    0.3348735438   -2.0296349823
     S    -0.6339197450    0.5493673360   -3.5117928962
