24
-2.2929244489759876e+03 frame 113   xyz file generated by TeraChem
    Cr    -0.1119875290    0.2430000074    0.0246817365
     P    -0.5003479708    3.1506035861   -0.5754293739
     H     0.2302087685    4.2132995641    0.0106844261
     H    -0.2458417244    3.4989323966   -1.9226611095
     H    -1.7724600873    3.7666324433   -0.4862712352
     P     2.4652252514    0.5509856713    0.2225607692
     H     3.0276929498    1.5638986690   -0.5806935085
     H     3.1700220816    0.8078654951    1.4218865860
     H     3.2165043432   -0.5450464519   -0.2462695438
     P     0.1957659960   -2.6622908961    1.0008857913
     H     1.3302271313   -3.3801496821    0.5642259887
     H     0.2544467391   -3.0620811144    2.3616731716
     H    -0.7727899013   -3.6038078408    0.5899352736
     P    -2.6062228058   -0.2720891388   -0.5106944963
     H    -2.7739445263   -1.4669765178   -1.2382233355
     H    -3.6328988043   -0.4419800964    0.4469129758
     H    -3.2652770405    0.6217081127   -1.3790487314
     P    -0.5549607437    0.6834046166    2.5828612553
     H     0.4944961075    0.4355805173    3.4940148529
     H    -0.9321853479    1.9619357588    3.0500239935
     H    -1.5611232642   -0.0731492681    3.2214753287
     S     0.2748284840   -0.0676462950   -2.3416152647
     C     0.2071939813   -1.7583644051   -2.2984083306
     N     0.1353894227   -2.9239445136   -2.2252252587
