55
-1.4584891043607029e+03 frame 46   xyz file generated by TeraChem
    Cr    -0.0098559658    0.0031228955    0.0046088314
     O     0.0000759231    2.2368143471    0.0127036147
     C    -1.0806718523    3.0704974643   -0.2961539573
     C    -0.6753499457    4.3591811568   -0.2677033874
     C     0.7250833960    4.3601984598    0.0755154180
     C     1.1001672220    3.0721997958    0.2372914395
     H    -2.0111014524    2.5599115277   -0.4853465764
     H    -1.2947201004    5.2243306417   -0.4607213742
     H     2.0171825439    2.5662113157    0.4933598425
     H     1.3626250473    5.2263225636    0.1880639128
     O     2.4671859924    0.0007302264    0.3896229835
     C     3.1219945184    0.2285011466    1.5954126908
     C     4.4511452792    0.3634908135    1.3784852982
     C     4.6621743692    0.2097659087   -0.0371801538
     C     3.4483773046   -0.0053639746   -0.5952739823
     H     2.4948735929    0.2603981327    2.4716287641
     H     5.2061590873    0.5454057028    2.1307647407
     H     3.1032470983   -0.1897590726   -1.5994700407
     H     5.6077395488    0.2508244693   -0.5598769619
     O    -0.0200418976   -2.2306182543   -0.0040823304
     C     1.0614361435   -3.0645751289    0.3016249338
     C     0.6580767583   -4.3536592200    0.2646076442
     C    -0.7416870922   -4.3546667452   -0.0811908675
     C    -1.1184578095   -3.0662704057   -0.2357647155
     H     1.9907872905   -2.5537721117    0.4955169808
     H     1.2784078431   -5.2189922738    0.4536686584
     H    -2.0357654829   -2.5600030374   -0.4902394979
     H    -1.3779033953   -5.2209618661   -0.1997782035
     O    -2.4865699044    0.0056642192   -0.3828829122
     C    -3.4679816467    0.0124154599    0.6018166917
     C    -4.6818564938   -0.2015002123    0.0434316497
     C    -4.4706483611   -0.3550602438   -1.3722167782
     C    -3.1413105735   -0.2212744000   -1.5888295412
     H    -3.1228180339    0.1962047241    1.6061126480
     H    -5.6275389257   -0.2420085553    0.5659592019
     H    -2.5141656841   -0.2535078480   -2.4650242957
     H    -5.2256365549   -0.5360699700   -2.1247447703
     C    -0.7188314763    0.6244368078    4.1830315925
     C    -0.4886485357    1.0640880644    2.9101252801
     N    -0.3408207397   -0.0331774820    2.0680935549
     C    -0.4831735775   -1.1180286447    2.8331843673
     N    -0.7107217788   -0.7534083011    4.1087794943
     H    -0.8508197294   -1.3900350429    4.8850852408
     H    -0.8825589621    1.1531933489    5.1095943162
     H    -0.4150921394    2.0750255588    2.5419919535
     H    -0.4266756123   -2.1432486497    2.5007965880
     C     0.6999776928   -0.6181253421   -4.1738284981
     C     0.4697002700   -1.0579020335   -2.9009914363
     N     0.3215170181    0.0393316483   -2.0589454622
     C     0.4637465982    1.1242475986   -2.8239434422
     N     0.6916030327    0.7597289399   -4.0995178291
     H     0.8316288512    1.3963999782   -4.8757958796
     H     0.8639962243   -1.1467727352   -5.1003999085
     H     0.3964000970   -2.0688754304   -2.5328957462
     H     0.4069273729    2.1494564815   -2.4915387015
