51
-2.0616986165914632e+03 frame 72   xyz file generated by TeraChem
    Cr    -0.0922706611    0.4119215315    0.5658348663
     C    -0.9666656230    5.2547509062    1.3490971289
     C     0.0082435842    4.8514839674    0.4388329574
     C     0.2391792499    3.4911804382    0.2506287077
     N    -0.4475048576    2.5409952360    0.9201911163
     C    -1.3899938719    2.9371676033    1.8021342728
     C    -1.6776295623    4.2764553897    2.0431107154
     H    -1.1680368171    6.3093652746    1.5156633942
     H     0.5889034636    5.5697218968   -0.1302582529
     H     0.9843759661    3.1561558906   -0.4623334021
     H    -1.8995087712    2.1438192786    2.3383708478
     H    -2.4431456390    4.5369979063    2.7666735315
     C     4.7871713066    1.0863071694    1.1712693985
     C     3.8963739092    1.4419951333    2.1843106317
     C     2.5352869726    1.2405198142    1.9846581457
     N     2.0393247678    0.7166408783    0.8446611176
     C     2.9041285901    0.3727397827   -0.1303953157
     C     4.2798233411    0.5399947599   -0.0048286230
     H     5.8559104302    1.2352439786    1.2967628977
     H     4.2431011250    1.8660178115    3.1209301860
     H     1.8153748818    1.4774464319    2.7595312744
     H     2.4650071605   -0.0310472271   -1.0352668149
     H     4.9283231624    0.2586654272   -0.8272792977
     C     0.7432763077   -4.4467307458   -0.0377251613
     C     1.1248282779   -3.7940042443    1.1314918396
     C     0.8711214567   -2.4312616509    1.2549598740
     N     0.2690124355   -1.7135201140    0.2857908516
     C    -0.0938473975   -2.3496718399   -0.8474052902
     C     0.1233314933   -3.7082661316   -1.0459315805
     H     0.9220059237   -5.5110746275   -0.1615060032
     H     1.5973637510   -4.3241806900    1.9510148555
     H     1.1344091032   -1.8897642703    2.1559632359
     H    -0.5505627356   -1.7382117813   -1.6165068723
     H    -0.1879758695   -4.1695925167   -1.9773171703
     C    -4.9746713068   -0.2363781893   -0.1592646794
     C    -4.2645424158    0.7127503915   -0.8938462970
     C    -2.8980165225    0.8509694001   -0.6725842675
     N    -2.2279607681    0.1023889558    0.2290256962
     C    -2.9178900435   -0.8178660842    0.9359740775
     C    -4.2860122986   -1.0149011117    0.7688418473
     H    -6.0427085026   -0.3675908614   -0.3096155939
     H    -4.7527841172    1.3388727729   -1.6334402197
     H    -2.3003935825    1.5560645972   -1.2408478620
     H    -2.3628761777   -1.4060045022    1.6585165586
     H    -4.7893981613   -1.7673375095    1.3666135172
     S    -0.4636566123    0.1254406450    3.5059537141
     C    -1.0147127138   -1.4499156068    3.6597044463
     N    -1.4090989082   -2.5572871261    3.7054682187
     S     0.0897953675    0.8396348455   -2.3704176272
     C     1.3746094259    1.9085888785   -2.4935351231
     N     2.2807706480    2.6583295200   -2.5215427094
