55
-1.0910869169931580e+03 frame 37   xyz file generated by TeraChem
    Cr     0.0000143353   -0.0007212271    0.0422465560
     O    -0.0032541722    2.1444669423    0.0027674190
     C     1.1490735032    2.9664539036   -0.3240125919
     C    -1.1589938464    2.9761664536    0.2942213508
     H    -1.9728222284    2.3068002167    0.5563830835
     H    -1.4176292726    3.5625836975   -0.5923402893
     H    -0.9268057936    3.6450698166    1.1278547382
     H     1.9615047360    2.2905525928   -0.5724043267
     H     1.4134521794    3.5809845362    0.5415531879
     H     0.9122840957    3.6085112458   -1.1774358597
     O     2.1883382920   -0.0040190201    0.0194677180
     C     3.0246405610   -0.2034364006   -1.1556942461
     C     3.0127368238    0.2275063979    1.1941027917
     H     2.3436513779    0.2446229858    2.0489862341
     H     3.5422150559    1.1792349792    1.0910410478
     H     3.7355805503   -0.5876099703    1.2952666424
     H     2.3654951543   -0.3389220420   -2.0081951865
     H     3.6487890484   -1.0892161479   -1.0072812653
     H     3.6602478606    0.6748317181   -1.3047221518
     O     0.0031379017   -2.1458273644    0.0026241919
     C    -1.1491362000   -2.9677765154   -0.3245144204
     C     1.1589282651   -2.9775965680    0.2938195952
     H     1.9727230116   -2.3082809619    0.5562182517
     H     1.4175888406   -3.5637071874   -0.5929358184
     H     0.9267197085   -3.6467766126    1.1272198945
     H    -1.9614716844   -2.2918454525   -0.5731146334
     H    -1.4137563043   -3.5823101146    0.5409730933
     H    -0.9121227464   -3.6098105686   -1.1778877486
     O    -2.1883175434    0.0025215363    0.0195330555
     C    -3.0247251656    0.2023411600   -1.1554743349
     C    -3.0126853357   -0.2292623547    1.1941748529
     H    -2.3435253212   -0.2470236672    2.0489818541
     H    -3.5424987182   -1.1807557342    1.0906965343
     H    -3.7352252644    0.5860669050    1.2957715399
     H    -2.3657485582    0.3389280465   -2.0079433118
     H    -3.6493653154    1.0876681623   -1.0064028396
     H    -3.6598557838   -0.6761601245   -1.3051530442
     O     0.0001250926   -0.0011552041    2.4471679060
     C     0.1390082397    1.1810340999    3.2636522303
     C    -0.1386626718   -1.1834724150    3.2634857220
     H    -0.2510411565   -2.0264583379    2.5814675679
     H    -1.0213696558   -1.1012887294    3.9070580457
     H     0.7518732677   -1.3225616507    3.8864832524
     H     0.2511614299    2.0242152117    2.5818198979
     H     1.0218676211    1.0987975232    3.9070089065
     H    -0.7513927130    1.3199323562    3.8868867168
     O     0.0004788135   -0.0007923440   -2.4427461771
     C     0.1727685068   -1.0990037043   -3.2811864064
     C     0.1091805063   -0.7111503567   -4.5754501068
     C    -0.1178910063    0.7099284242   -4.5748145644
     C    -0.1756084368    1.0976007645   -3.2802204431
     H     0.3249898457   -2.0412120169   -2.7806421450
     H     0.2094199027   -1.3511681808   -5.4412209704
     H    -0.3251419459    2.0397477345   -2.7787614467
     H    -0.2219475035    1.3501127764   -5.4400135337
