45
-9.3505004699452024e+02 frame 38   xyz file generated by TeraChem
    Cr     0.1412451730   -0.0221424450    0.1083880855
     O     0.0955260964    2.0880540771    0.0441893704
     C     1.1076849207    2.8536217557   -0.6639745668
     C    -1.0733114797    2.8983757063    0.3325278286
     H    -1.7585861924    2.2880816026    0.9155544149
     H    -1.5458014039    3.2152904080   -0.6023770153
     H    -0.7638663876    3.7745736146    0.9089324177
     H     1.9862299176    2.2182988932   -0.7355998322
     H     1.3396840363    3.7519555522   -0.0856620290
     H     0.7402222471    3.1310997983   -1.6564844430
     O     2.5281345561   -0.0130705033    0.0739962472
     C     3.3253824147   -0.2186872344   -1.1134410529
     C     3.3614719273    0.1814765606    1.2354309815
     H     2.7033016030    0.2054656321    2.1044382941
     H     3.9146036643    1.1233438827    1.1528700487
     H     4.0713045406   -0.6473282330    1.3353641469
     H     2.6345865219   -0.2920659619   -1.9533250249
     H     3.9072979942   -1.1416238762   -1.0192962909
     H     4.0065488244    0.6262022206   -1.2639438367
     O     0.1735141811   -2.1314781913    0.0581949158
     C    -0.8186892042   -2.9144430445   -0.6521475434
     C     1.3400147759   -2.9368358672    0.3854614060
     H     2.0355103225   -2.2982947704    0.9220145540
     H     1.7994000568   -3.3061752459   -0.5359051195
     H     1.0253293259   -3.7754000556    1.0124731915
     H    -1.6965487860   -2.2828629724   -0.7724232133
     H    -1.0736642088   -3.7943298002   -0.0548618113
     H    -0.4212213596   -3.2268533140   -1.6228862050
     C    -3.6115813276   -0.0498949394    0.2852166593
     O    -2.4117031667   -0.0366583512    0.0536143157
     H    -4.1273501063    0.8322683968    0.6986995962
     H    -4.2264384205   -0.9431442506    0.0882711649
     O     0.0215804632    0.0089008701    2.2307861417
     C     0.2725693358    1.1707000951    3.0647067337
     C    -0.6056468640   -1.0540456125    2.9930256523
     H    -0.6954014761   -1.9089315767    2.3274613414
     H    -1.5902267993   -0.7276973870    3.3418648463
     H     0.0282165063   -1.3068100884    3.8478030707
     H     0.7210663876    1.9320116076    2.4309042588
     H     0.9544501877    0.8923041162    3.8730127826
     H    -0.6716391968    1.5336769113    3.4824668783
     C    -0.7800107707    0.0126756001   -2.9233422021
     O     0.0643242804   -0.0147135863   -2.0360186177
     H    -1.8540435084    0.0087023469   -2.6886335916
     H    -0.4709073593    0.0416134646   -3.9770546420
