17
-2.0597908898221226e+03 frame 16   xyz file generated by TeraChem
    Cr    -0.0017480588    0.0077132107    0.0093145997
     C    -0.0035617220    2.1384917502    0.0075291766
     S    -0.0091552429    3.6531275181    0.0118219585
     C     2.1286467000   -0.0026146445    0.0140004868
     S     3.6433123342   -0.0149972384    0.0122242597
     C     0.0014230274   -2.1230401767    0.0062511150
     S     0.0088768130   -3.6376741709    0.0082109734
     C    -2.1320161682    0.0199791230    0.0101462608
     S    -3.6466443420    0.0351233797    0.0066397474
     C     0.0007257367    0.0038486676    3.7170362252
     O    -0.0017469639    0.0075697228    2.4967653557
     H     0.5514348407   -0.7613432800    4.2884284337
     H    -0.5477100087    0.7655991595    4.2951511199
     C    -0.0005592294    0.0088898812   -3.6953638200
     O    -0.0005096418    0.0068359104   -2.4750512930
     H    -0.8561584804    0.4009423861   -4.2693374235
     H     0.8550586620   -0.3811971625   -4.2706492438
