31
-2.1458515645452289e+03 frame 31   xyz file generated by TeraChem
    Cr    -0.0651793608    0.0169903183    0.0360846666
    Cl    -0.4474127890    2.4222763230   -0.3432747910
    Cl     2.9630053280   -0.0694452883    0.0435137820
    Cl    -0.4581103338   -2.4252506306    0.4199830462
     C    -4.9946830195    0.5711885044    0.0039606899
     C    -3.7111014935    1.0465434566   -0.0816047772
     N    -2.8125203728    0.0076626479    0.0429278298
     C    -3.5292886254   -1.0846927948    0.2023314676
     N    -4.8643116087   -0.7983522221    0.1855698056
     H    -5.6162898763   -1.4635242926    0.2878834567
     H    -5.9607213475    1.0521408525   -0.0445962400
     H    -3.3423378379    2.0533803323   -0.2219496936
     H    -3.1014320728   -2.0710869599    0.3306224557
     C    -0.3953260878    0.7185914038    4.3035137277
     C    -0.9520184361    0.5435784828    3.0663245848
     N     0.0445269743    0.3420014656    2.1382930852
     C     1.1949738341    0.3919714151    2.7834462458
     N     0.9731208830    0.6191615932    4.1046153687
     H     1.6906164116    0.7004941857    4.8080833377
     H    -0.8250201676    0.9013528624    5.2765344993
     H    -1.9871835080    0.5480925778    2.7621963608
     H     2.1621896918    0.2679988270    2.3041867868
     C    -0.4100011435   -0.5790275217   -4.2424901507
     C    -0.9576984974   -0.3451351263   -3.0109731047
     N     0.0405377003   -0.3107273220   -2.0636201080
     C     1.1830292772   -0.5162242290   -2.6915224754
     N     0.9543851212   -0.6852768233   -4.0202739758
     H     1.6656003235   -0.8525746383   -4.7148841236
     H    -0.8430809311   -0.6746879341   -5.2263946871
     H    -1.9863413180   -0.1915509424   -2.7235650937
     H     2.1507219500   -0.5295494461   -2.1978675039
