24
-7.3485315671296939e+02 frame 126   xyz file generated by TeraChem
    Cr    -0.1740438795   -0.0653548356    0.0354844117
     C    -0.3225639173    3.5123794743    0.3996150561
     O    -0.2541191764    2.3690725265   -0.0309550062
     H    -0.3673764060    4.3748401849   -0.2828785998
     H    -0.3410148642    3.7188729727    1.4810975267
     C     2.6649813287    0.3148281800   -1.0286184063
     O     1.8815004060    0.1577047464   -0.0939266071
     H     3.7408458433    0.3914424808   -0.8268446893
     H     2.3110760955    0.3797097673   -2.0661025558
     C    -0.0641467355   -3.6411755606   -0.4200126032
     O    -0.1206400299   -2.4869348732   -0.0227446505
     H    -0.1832213264   -4.4868504750    0.2752364751
     H     0.1069910885   -3.8804605827   -1.4821714261
     C    -2.9867548903   -0.5465920096    1.1130021542
     O    -2.2168563834   -0.3100818477    0.1846645113
     H    -4.0602658346   -0.6496019616    0.9104427398
     H    -2.6251104345   -0.6570567359    2.1440073673
     C     0.9137529602   -0.4664177240    2.8576389677
     O    -0.0302922426   -0.3341597153    2.0812972288
     H     1.9536842762   -0.4146933729    2.5088204391
     H     0.7182436317   -0.6361091369    3.9239024314
     O    -0.3432999442    0.3023023169   -2.0205084612
     H    -0.9620330601   -0.1974264906   -2.5834691141
     H    -0.5171440268    1.2497865623   -2.1814807319
