37
-8.8250599136718301e+02 frame 124   xyz file generated by TeraChem
    Cr    -0.0055052560   -0.0032565084   -0.0002293964
     C     0.4651433406    3.1984535920    0.5247301638
     N     0.2998233784    2.0675490161    0.3440799972
     C     0.6722226836    4.6216770139    0.7509540763
     H     0.6521343988    5.1572243674   -0.2037091712
     H     1.6417311207    4.7853002393    1.2324163643
     H    -0.1183364316    5.0145680219    1.3984615587
     C     3.1941540968   -0.5255864622    0.4865514850
     N     2.0639440258   -0.3431787799    0.3185107358
     C     4.6163756009   -0.7550541454    0.6968824613
     H     5.1527860654    0.1992599011    0.6866479367
     H     5.0119005553   -1.3950673610   -0.0984494204
     H     4.7761361087   -1.2443710997    1.6631083082
     C    -0.4841712787   -3.2063967531   -0.5080641639
     N    -0.3145719427   -2.0761117964   -0.3276237658
     C    -0.6974322215   -4.6286020105   -0.7349317718
     H     0.2587283306   -5.1599212734   -0.6904987873
     H    -1.1475913475   -4.7853328964   -1.7205243566
     H    -1.3660563890   -5.0320603646    0.0323788573
     C    -3.2073723568    0.5167704226   -0.4756957376
     N    -2.0777320147    0.3347016647   -0.3034814093
     C    -4.6286989112    0.7459138039   -0.6924595860
     H    -5.2152678406    0.0968550120   -0.0342303944
     H    -4.8867781478    0.5271599545   -1.7336637559
     H    -4.8746650181    1.7903434347   -0.4752166377
     C    -0.5917588342   -0.5210607752    3.5133303325
     N    -0.4048168283   -0.3589138549    2.3812287533
     C    -0.8273104472   -0.7247489311    4.9385179172
     H    -1.8084845941   -1.1839159536    5.0946718381
     H    -0.7972430009    0.2347090208    5.4642667699
     H    -0.0579879857   -1.3819521202    5.3558286506
     H     1.1555597457   -0.2066129622   -5.4442027489
     H    -0.1014850982    1.0619959317   -5.4681931436
     C     0.8244273605    0.7311524000   -4.9914609451
     N     0.5910981743    0.5262123698   -3.5964552348
     C     0.4015045040    0.3590618592   -2.4583946709
     H     1.5963976844    1.4936440206   -5.1205806630
