27
-2.2832752424523142e+03 frame 62   xyz file generated by TeraChem
    Cr    -0.0060631683   -0.0092939360    0.0029268668
     C    -0.3560998510    2.5674001752   -0.3444644413
     S    -0.2627484560    4.0801386112   -0.5252148250
     C     2.0958952412    0.3386457884   -0.3636514839
     S     3.5640799479    0.6183608535   -0.6408615597
     C     0.3438473283   -2.5866951642    0.3500334201
     S     0.2493816226   -4.0993885514    0.5307295871
     C    -2.1079609424   -0.3583231380    0.3695134930
     S    -3.5761300037   -0.6384936651    0.6463505406
     C     0.0996958989    1.1664081225    4.1428404177
     C    -0.3517539326    1.2613613815    2.8570076188
     N     0.2896868008    0.3118748557    2.0720640830
     C     1.1180218913   -0.3446023247    2.8849690439
     N     1.0270036899    0.1460728653    4.1357805263
     H     1.5537753358   -0.1823525230    4.9369576725
     H    -0.1494364456    1.7162345404    5.0375093000
     H    -1.0852015474    1.9388671800    2.4488006568
     H     1.7736214582   -1.1554484645    2.6062050071
     C    -0.1120943228   -1.1845633937   -4.1370177283
     C     0.3396973196   -1.2794088385   -2.8512853930
     N    -0.3019113601   -0.3301784618   -2.0662012572
     C    -1.1306866693    0.3260411220   -2.8788632254
     N    -1.0397627848   -0.1645651036   -4.1297081715
     H    -1.5667855633    0.1637239105   -4.9307748226
     H     0.1369680123   -1.7343266747   -5.0317434766
     H     1.0734901908   -1.9566698965   -2.4432849140
     H    -1.7865024849    1.1366421208   -2.5999068644
