10
-1.6946536457442212e+03 frame 39   xyz file generated by TeraChem
    Cr     0.0578972913    0.0493561356   -0.0485296000
     C     0.3403872908    2.0904645425   -0.3481259422
     S     0.3894390117    3.5943383110   -0.6054434131
     C     2.1392051169   -0.2649630560    0.2844908890
     S     3.6395824414   -0.4867888366    0.4904957228
     C    -0.3569456872   -1.9685414158    0.2235901630
     S    -0.8052949770   -3.4158915449    0.4087880596
     F    -1.6746872790    0.3256864653   -0.3448304283
     F    -0.1125021845    0.3151669088    1.7397585029
     F     0.4371131776   -0.2388295303   -1.8042681650
