11
-2.7261776190033479e+03 frame 38   xyz file generated by TeraChem
    Cr     0.0058405374   -0.0009438176    0.0447957134
    Cl    -0.9295958427    1.9312729512    1.0495351649
    Cl     2.0968916414    1.0762438121   -0.1934259400
    Cl     0.9399946817   -1.9322089468   -0.9613561076
    Cl    -2.0860380790   -1.0791201395    0.2852215982
     S     0.5945888359   -0.9503696789    2.2977668225
     H    -0.0200198784    0.0632422306    2.9476711358
     H     1.8011989626   -0.3418597695    2.3419357245
     S    -0.5920295304    0.9493085185   -2.2055194938
     H    -0.0026869940   -0.0759339952   -2.8606967844
     H    -1.8083874290    0.3594317474   -2.2305470235
