35
-1.7679763305839995e+03 frame 70   xyz file generated by TeraChem
    Cr    -0.2818885882   -0.1513595611   -0.1798113803
     P     0.0632952360    2.4095337095    0.2827693104
     H    -0.8518380932    2.9638006649    1.1989328471
     H     1.2986285752    2.8220151559    0.8189568403
     H    -0.0768750443    3.2679182035   -0.8252654889
     P     2.2958788536   -0.5344842302   -0.3986647772
     H     3.1451682538    0.5874747679   -0.3248042272
     H     2.9018068836   -1.4066305928    0.5270257492
     H     2.6746795197   -1.1064957602   -1.6283600156
     P    -0.4108954534   -2.7736831733   -0.4266071518
     H     0.1651654757   -3.5897613283    0.5665962980
     H    -1.7107005817   -3.3078769295   -0.5254262628
     H     0.1977562093   -3.2679427978   -1.5963997146
     O    -2.3148446139   -0.0413753003   -0.0824848611
     C    -3.0494979689    1.0566043400   -0.7313177095
     C    -3.1534608023   -0.6870239818    0.9391051568
     H    -2.5994458564   -1.5332505689    1.3445202888
     H    -4.0661294564   -1.0455801982    0.4562386861
     H    -3.4000802098    0.0348158093    1.7218272483
     H    -2.4018829222    1.4744066519   -1.5001747266
     H    -3.3150211727    1.8079194816    0.0167733070
     H    -3.9517294582    0.6425096716   -1.1874754463
     P     0.0437447135   -0.4024252587    2.3999915718
     H     1.2296947445    0.1455978046    2.9267266046
     H    -0.9383455801    0.2124194777    3.2007541949
     H     0.0740011632   -1.7080492004    2.9278014151
     O    -0.3472868238   -0.0094883070   -2.2207422327
     C     0.4344135213    0.9305184896   -3.0386930706
     C    -1.3506152993   -0.6953616572   -3.0576479714
     H    -2.0199942009   -1.2398021405   -2.3943432642
     H    -0.8255799825   -1.3709915704   -3.7366828960
     H    -1.9113557212    0.0514675040   -3.6238903813
     H     1.2347846601    1.3374570506   -2.4210481382
     H    -0.2232485290    1.7286842596   -3.3913084009
     H     0.8595939031    0.3868235327   -3.8857918206
