29
-8.4307678748203421e+02 frame 12   xyz file generated by TeraChem
    Cr     0.2020892429    0.0013806780    0.2156272807
     C    -0.0314827226    3.1559051407   -0.0239541968
     N     0.0629618459    2.0000417292    0.0724257325
     C    -0.1503688039    4.5927922870   -0.1450970901
     H    -0.4463445426    4.8565416875   -1.1693133003
     H     0.8136025395    5.0656849984    0.0846096531
     H    -0.9103128635    4.9632188436    0.5557119380
     C     3.3356585810   -0.0098512942    0.0623032500
     N     2.1735794116   -0.0032263785    0.1205422338
     C     4.7805063123   -0.0189044519   -0.0121105203
     H     5.1593288092    1.0114747690   -0.0291561743
     H     5.1016596983   -0.5359082938   -0.9263036951
     H     5.1937906378   -0.5413091941    0.8608548887
     C    -0.0432175485   -3.1523668407   -0.0213124642
     N     0.0563268506   -1.9968948512    0.0747629890
     C    -0.1688950925   -4.5886660755   -0.1426837529
     H     0.8278725302   -5.0487066566   -0.1626638672
     H    -0.6999622297   -4.8380212330   -1.0711066877
     H    -0.7324487163   -4.9857332854    0.7120289621
     C    -2.0036499388    0.0052289617    0.1784411920
     O    -3.1276118216    0.0074131078    0.1918550303
     C     0.0536826841    0.0070069050    3.3492221682
     N     0.1099372435    0.0046431768    2.1870227182
     C    -0.0189922416    0.0100676644    4.7941650709
     H     0.9943702723    0.0094837450    5.2172070329
     H    -0.5548870573   -0.8832942593    5.1412190662
     H    -0.5522115651    0.9064641961    5.1375118445
     C     0.1641713906    0.0012245056   -1.9908313194
     O     0.1780470147    0.0013374873   -3.1147964545
