22
-1.7292685815045602e+03 frame 75   xyz file generated by TeraChem
    Cr    -0.4347080751   -0.1834874182    0.0549720560
     N    -0.7191128498    1.8965620715    0.3504798025
     H    -1.7055069383    2.1190809484    0.2071960419
     H    -0.4734480073    2.1733762282    1.3039611218
     H    -0.1709884589    2.4689980314   -0.3009830379
     N     1.6543478013    0.2011358437    0.3511038599
     H     2.2498534573   -0.6115377789    0.1917767376
     H     1.9810624825    0.9430795670   -0.2778013501
     H     1.8210461139    0.5093856300    1.3163218405
     N    -0.0697807135   -2.2409195473   -0.3371544640
     H     0.7657362971   -2.4021950512   -0.9005886779
     H     0.0135033567   -2.7630875247    0.5365150995
     H    -0.8567728847   -2.6338269259   -0.8681257827
     S    -2.8558415882   -0.5266047103   -0.2099969937
     C    -2.8066795997   -1.6364114136   -1.4785343660
     N    -2.6900675532   -2.4616528199   -2.3031384346
     S    -0.8435276737   -0.6177956695    2.4617736170
     C     0.3391802087    0.4162659390    3.0733118323
     N     1.1755255598    1.1758916060    3.3920797376
     S    -0.0953607197    0.1785324282   -2.4068661654
     C     0.8841141036    1.5333600093   -2.2420687268
     N     1.5492277035    2.4716620485   -2.0000230430
