33
-7.2967340830149374e+02 frame 46   xyz file generated by TeraChem
    Cr    -0.0705478105   -0.1468605407    0.0941231071
     C    -0.5707787196    2.9796058811   -0.3420589943
     N    -0.4151973394    1.8361083860   -0.2051041554
     C    -0.7700035188    4.4058466441   -0.5158855183
     H    -1.2474678287    4.6011613879   -1.4843387776
     H     0.1971700459    4.9225448334   -0.4816983123
     H    -1.4125716518    4.7920441355    0.2852677964
     C     3.0718305438    0.3021551138   -0.3726915706
     N     1.9299927337    0.1402494347   -0.2317574831
     C     4.4974707295    0.5046829212   -0.5535087830
     H     4.7493296571    1.5572821119   -0.3755765852
     H     4.7859874418    0.2344692872   -1.5768195422
     H     5.0544824181   -0.1226147253    0.1531624211
     C     0.4249670526   -3.2725080294    0.5425468361
     N     0.2187768220   -2.1439417192    0.3563564598
     C     0.6787595084   -4.6822262429    0.7702208577
     H     1.7549930667   -4.8821206581    0.6962560950
     H     0.1496850767   -5.2830483558    0.0196992226
     H     0.3272994957   -4.9671400536    1.7697812999
     N    -2.1254938803   -0.4528059895    0.3760096771
     H    -2.4891570807   -1.3146933874   -0.0433068819
     H    -2.3183130277   -0.5269698672    1.3798522471
     H    -2.7114418812    0.3156690613    0.0343071985
     C     0.3671614065    0.3515751180    3.2321678102
     N     0.1793203865    0.1635394458    2.1010489534
     C     0.5968706983    0.5842829237    4.6458416681
     H     1.6738140158    0.6618208425    4.8392835351
     H     0.1862068763   -0.2469836239    5.2321398215
     H     0.1085889979    1.5167257063    4.9547736904
     N    -0.3028182648   -0.4156862713   -1.9711893969
     H    -1.1862487324   -0.0657645661   -2.3551686657
     H     0.4394175404    0.0699283507   -2.4846338476
     H    -0.2389983061   -1.4021956916   -2.2417869089
