15
-1.3123480428120401e+03 frame 54   xyz file generated by TeraChem
    Cr     0.0441090645   -0.0637549043    0.0185667820
     O     0.4843078523    1.9087292138   -0.2413372979
     H     0.4849648784    2.2525997939   -1.1535241948
     H     0.1487969740    2.5813142078    0.3781836638
     O     2.0012154269   -0.4565879526    0.3599289919
     H     2.4776908059   -0.6151197153   -0.4786460791
     H     2.4931140622    0.2144758652    0.8673725706
     O    -0.1999445440   -2.0486553389    0.3156323232
     H    -0.8653326184   -2.5004277585   -0.2341411771
     H    -0.3787336497   -2.2537723606    1.2539179334
     O    -1.9601560950    0.1320153760   -0.2963456926
     H    -2.2857420840    0.3680762106   -1.1832444815
     H    -2.5040718197    0.5469411676    0.3970917980
    Cl    -0.3202280971    0.3330365034    2.2238755028
    Cl     0.3536086340   -0.3769965302   -2.2099088938
