24
-4.2465926010872857e+02 frame 69   xyz file generated by TeraChem
    Cr    -0.0182859764    0.0226569528   -0.0250156729
     N    -0.2416788545    2.1293040767    0.3631445326
     H    -1.1210132057    2.3909313847    0.8173457798
     H     0.4888032617    2.5878202489    0.9150454731
     H    -0.2580704689    2.5964837231   -0.5472554463
     N     2.0968629451    0.2485673176   -0.3318123868
     H     2.4130743433    1.2208142433   -0.3827130445
     H     2.7319842611   -0.2124440513    0.3255226021
     H     2.3028154779   -0.1482761386   -1.2537874689
     N     0.2221520615   -2.1010808558   -0.3545935210
     H     1.1358579483   -2.5031555693   -0.1285073434
     H    -0.4649881838   -2.7537833233    0.0323430274
     H     0.1368783523   -2.1427079684   -1.3754417957
     N    -2.1389233881   -0.3064924410    0.1522183103
     H    -2.4506204801   -1.0543281906   -0.4746762198
     H    -2.4828804505   -0.5645077846    1.0814446817
     H    -2.6876972970    0.5122385423   -0.1253404942
     N     0.2714008882   -0.2714161410    2.1905252935
     H    -0.4539310545    0.1371570185    2.7865128140
     H     0.3006385459   -1.2613631905    2.4490454367
     H     1.1468658282    0.1165689295    2.5527463223
     N    -0.2107130750    0.2390086711   -1.8929784963
     H    -1.1356110609    0.3038133319   -2.3167593420
     H     0.4158146609    0.8162732499   -2.4536305405
