27
-2.4240033265729826e+03 frame 52   xyz file generated by TeraChem
    Cr    -0.3523845097    0.0459106003    0.0931369981
    Cl    -0.0298674985    2.3818638350   -0.3570969029
    Cl     1.9456283981   -0.3001430367    0.3876748063
    Cl    -0.8121910581   -2.2998498438    0.3617397759
     C    -5.2205595269    0.7529903372   -0.6396106104
     C    -4.2917633808    1.4443546034   -1.4146286369
     C    -2.9343409366    1.2187700918   -1.1969221455
     N    -2.4837422988    0.3481526645   -0.2786145617
     C    -3.3790867265   -0.3162045017    0.4739779832
     C    -4.7528848262   -0.1390735819    0.3235058561
     H    -6.2875267543    0.9111800226   -0.7787606936
     H    -4.6020467346    2.1591224949   -2.1708651877
     H    -2.1690775620    1.7644215975   -1.7368326727
     H    -2.9595178503   -0.9985695067    1.2023450824
     H    -5.4348099283   -0.6949043711    0.9596220226
    Cl    -0.7716024803    0.4315438478    2.3686887952
     C     0.4016445757   -0.8162807709   -4.7432120895
     C     1.1531503490    0.1319096037   -4.0517028545
     C     0.8870994328    0.3549083659   -2.7025988647
     N    -0.0724439633   -0.3162035235   -2.0407577186
     C    -0.7852863448   -1.2427671838   -2.7023998940
     C    -0.5862766986   -1.5167170632   -4.0539288099
     H     0.5875002903   -1.0112222105   -5.7969102585
     H     1.9419929266    0.6953133527   -4.5404360594
     H     1.4352169082    1.0808319402   -2.1154500224
     H    -1.5027261362   -1.7932331603   -2.1041573637
     H    -1.1904823273   -2.2749563070   -4.5427647287
