7
-2.4872743281144276e+03 frame 33   xyz file generated by TeraChem
    Cr     0.1100204726    0.1020148629   -0.3741964596
    Cl     0.4845200074    2.5795284385   -0.7965288227
    Cl     2.5915347731   -0.3121845258   -0.7543086964
    Cl    -0.2662625779   -2.3806521036    0.0361910809
    Cl    -2.3700734077    0.5150274859   -0.0095408737
    Cl     0.5260633325    0.4831457989    2.1317925910
     F    -0.1793005553   -0.1644798545   -2.1121808400
