40
-9.3391280066689524e+02 frame 55   xyz file generated by TeraChem
    Cr    -0.0888945489    0.1089452708   -0.1956727146
     N    -0.3552411166    2.2338959525   -0.4849290955
     H    -1.3512295595    2.4596031650   -0.5560056396
     H     0.0164728119    2.8685668979    0.2289614383
     H     0.0583875511    2.5445920405   -1.3697129199
     N     2.0163118028    0.4834611792   -0.4808997335
     H     2.3322439512    1.3981292683   -0.1437914714
     H     2.6481981394   -0.1920961348   -0.0419393031
     H     2.2410249641    0.4710421465   -1.4809774526
     C     1.3187743988   -3.9161136940    0.2949158564
     C     1.4480905775   -2.6345374186   -0.1577435031
     N     0.2870642543   -1.9158359003    0.1416879894
     C    -0.5214556139   -2.7816998967    0.7739771399
     N     0.0737671352   -3.9797410027    0.8763584023
     H    -0.3349075243   -4.8040435019    1.3097325559
     H     1.9879095868   -4.7637130083    0.2511170995
     H     2.2895745453   -2.2135366313   -0.6845145502
     H    -1.5132651273   -2.5789133423    1.1458877785
     C    -4.2313645413   -0.8774772010   -0.1282813807
     C    -2.9468007178   -1.0205561760   -0.5723257459
     N    -2.1253246951   -0.1237786268    0.1121171592
     C    -2.9290648620    0.5489044985    0.9547107581
     N    -4.1918920309    0.1141591633    0.8272334904
     H    -4.9906939580    0.4633410219    1.3519335651
     H    -5.1472913615   -1.3804143117   -0.4044986561
     H    -2.5612549742   -1.6950102467   -1.3206430731
     H    -2.6389990616    1.3309715157    1.6421509498
     N     0.2441251016    0.3451046186    1.9255233670
     H    -0.5405396446   -0.0364008753    2.4609982962
     H     1.0578836863   -0.1988225141    2.2278504120
     H     0.3951392185    1.2908695895    2.2886062796
     C    -0.0532311070   -0.9150776050   -4.3293027649
     C     0.3672450713   -1.0466223205   -3.0366039385
     N    -0.3410706983   -0.1542800555   -2.2307570142
     C    -1.1826872537    0.4968230284   -3.0506141111
     N    -1.0260641178    0.0592340931   -4.3087310970
     H    -1.5449519429    0.3938490545   -5.1170189651
     H     0.2451102115   -1.4207152897   -5.2365763690
     H     1.0944780855   -1.7354116534   -2.6394117755
     H    -1.9096626455    1.2437746839   -2.7702931939
