21
-2.2797041726064058e+03 frame 142   xyz file generated by TeraChem
    Cr     0.0486891657    0.0796206966    0.0069076512
     S    -0.2706950766    2.5711902983   -0.3368435317
     C    -1.2532643700    2.9140720317    0.9687129819
     N    -1.9008371567    3.0774310735    1.9388943905
     S     2.5300854531    0.4850359426    0.2884951786
     C     3.1042215386   -0.4365185544   -0.9811870371
     N     3.4199795203   -1.0663638891   -1.9247914053
     S     0.1888776648   -2.3413552557    0.4183792006
     C     1.3685843785   -2.5717038120    1.6099440893
     N     2.1450454999   -2.8050224132    2.4537007661
     S    -2.3271206523   -0.4510344545   -0.3339059076
     C    -2.8683160005    0.5445912004   -1.5905375154
     N    -3.3012246176    1.1741558059   -2.4768807019
     C    -1.1356228846    0.7050650034    2.6359235404
     O    -0.1230048892    0.4468658586    1.9786447796
     H    -1.0190748201    1.0298233671    3.6751360363
     H    -2.1401304169    0.5491334837    2.2342489494
     C     0.9128020357   -1.0032487453   -2.6008022148
     O     0.4089286476   -0.0733247484   -1.9647502451
     H     1.1718587959   -0.8399544130   -3.6522752860
     H     1.0401180632   -1.9986991917   -2.1670035510
