14
-2.7579970383713476e+03 frame 77   xyz file generated by TeraChem
    Cr     0.2905423821    0.1464267692   -0.1628864807
     C     0.5815206401    2.1792553308    0.0794698613
     S     0.7784516095    3.6750389217    0.2133737589
     C     2.2940189691   -0.1735503722   -0.5654060608
     S     3.7515993548   -0.4049937460   -0.9053074231
     C    -0.0255632188   -1.8645182565   -0.4716666425
     S    -0.3151875186   -3.3185714906   -0.7761112777
     C    -1.7165893449    0.4670360219    0.1694495264
     S    -3.2081941643    0.6723181961    0.3227474086
     C     0.5994266912   -0.1748037703    1.8318836674
     S     0.8234237716   -0.4152224183    3.3117625857
     S    -0.0351543888    0.5424975259   -2.4897990325
     C    -1.4257963850   -0.3517762805   -2.8182038399
     N    -2.3931660063   -0.9820031811   -3.0071813521
