8
-2.5009179910356734e+03 frame 29   xyz file generated by TeraChem
    Cr    -0.0063583579   -0.0062325939    0.0816058905
    Cl     0.3678206899    2.3539166678   -0.3169030102
    Cl     2.3520898400   -0.3908047241   -0.3047901754
    Cl    -0.3904757341   -2.3730116202   -0.2406806982
    Cl    -2.3737294756    0.3693692757   -0.2524082557
    Cl     0.1207855629    0.1203630301    2.4175362020
     C    -0.0298075175   -0.0311921317   -2.0164759005
     O    -0.0403249799   -0.0424080083   -3.1591457189
