23
-1.5262946656031809e+03 frame 64   xyz file generated by TeraChem
    Cr    -0.3771400864    0.5634406039    0.2011721751
     C     0.7258895624    3.3203524476    0.2244564213
     O    -0.1381359664    2.5329093099    0.5992576927
     H     0.6750419189    4.3624682388    0.5612828096
     H     1.5419405691    2.9992761782   -0.4338110624
     C     2.4412074515   -0.3699957041   -0.4175444391
     O     1.6000744809    0.4915626515   -0.1422643631
     H     2.2391075382   -1.4378248056   -0.3301522585
     H     3.4485923039   -0.0472317880   -0.7023328431
     C    -0.4578613208   -2.4403164293   -0.3506230712
     O    -0.9608414943   -1.3534982681   -0.0517135369
     H    -1.0687602523   -3.3454898594   -0.2599501733
     H     0.5521689735   -2.5296698568   -0.7518468172
     C    -3.3034876481    0.3008482571    0.7377888739
     O    -2.3389955129    1.0193310737    0.4950917470
     H    -4.2911348765    0.7626578775    0.8553981095
     H    -3.1996174232   -0.7862651041    0.8356431796
     S    -0.0140566766    0.0721908380    2.5640742125
     C     0.8417377540   -1.3290136784    2.2147455584
     N     1.4084707678   -2.2843373684    1.8350679886
     S    -0.6954475362    0.9618456359   -2.2038889944
     C     0.3343204977   -0.2917142562   -2.6312805205
     N     1.0835803276   -1.1831103196   -2.7819001074
