25
-1.8299903502555630e+03 frame 67   xyz file generated by TeraChem
    Fe     0.0371335389    0.1164948809   -0.1151944186
     C     0.5368546730    3.3838323349   -0.6130016012
     N     0.3658301977    2.2508342271   -0.4404881569
     C     0.7524731057    4.8065733361   -0.8297247223
     H     0.5337463055    5.0612050050   -1.8721145578
     H     1.7941611220    5.0623225768   -0.6093760255
     H     0.0947358704    5.3867116713   -0.1738970425
     C     3.3223536631   -0.3742016168    0.4069604406
     N     2.1904978285   -0.2050249268    0.2272109366
     C     4.7458632363   -0.5857349783    0.6330205550
     H     5.2762306461    0.3707292089    0.5811539771
     H     5.1499036290   -1.2587984192   -0.1300768367
     H     4.9055028540   -1.0280962222    1.6216799307
     C    -0.5149759240   -3.1447066860    0.3728342469
     N    -0.3252113276   -2.0139659411    0.2054022977
     C    -0.7522432924   -4.5650481723    0.5827007407
     H     0.1999214698   -5.1058053389    0.5752004629
     H    -1.3930025867   -4.9568124421   -0.2143065978
     H    -1.2455262370   -4.7213399321    1.5478336475
     C    -2.1546565933    0.4289557425   -0.4638702232
     S    -3.6425486600    0.6384951065   -0.6947174321
     C    -0.2321556700    0.4819102636    2.0824010308
     S    -0.4123889586    0.7256621595    3.5719464588
     C     0.3736482493   -0.2543779306   -2.3033679056
     S     0.6008835887   -0.5024450838   -3.7857721271
