27
-8.2832075894000764e+02 frame 129   xyz file generated by TeraChem
    Fe     0.0855809010   -0.0978555879    0.0610628704
     C     0.6388416851    2.7490567504    1.1904797942
     O     0.4234889393    2.0121883138    0.2341376024
     H     0.6967962627    2.3580633790    2.2161643093
     H     0.7796689184    3.8265984536    1.0295332317
     C     3.2042358326   -0.1597953941   -0.6643189066
     O     2.1607870208   -0.5691393298   -0.1738267733
     H     4.1394636783   -0.7181489562   -0.5192233346
     H     3.2396824638    0.7653185861   -1.2597572097
     C    -0.4910265083   -3.1098167914   -0.7991250164
     O    -0.2019105232   -2.2325441506    0.0033518397
     H    -0.6876682720   -2.8770524336   -1.8558126532
     H    -0.5581321216   -4.1572356061   -0.4749437676
     C    -3.0116988770    0.7337593787    0.3426449908
     O    -1.9919005083    0.0884423401    0.5437394740
     H    -3.0236701551    1.5963285197   -0.3411149137
     H    -3.9483757315    0.4605286826    0.8481494623
     C     0.4365566059   -1.1711236415    2.9429083412
     O     0.4225047901   -0.2453249539    2.1380946183
     H     0.6508202817   -0.9748647271    4.0016380742
     H     0.2358233554   -2.2031657258    2.6252228355
     C    -0.3945332153    0.4623743164   -3.1782161661
     N    -0.2420930147    0.2142470011   -2.0559282384
     C    -0.5853519215    0.7755779238   -4.5865138626
     H    -0.4670904863    1.8531250315   -4.7444744154
     H    -1.5898415553    0.4755400736   -4.9035269622
     H     0.1556355831    0.2422042837   -5.1915651968
