40
-9.8276727795548027e+02 frame 63   xyz file generated by TeraChem
    Fe    -0.1593913355    0.0867986142    0.1220771869
     N    -0.5109124322    2.2691852855    0.2495041227
     H    -1.5162812261    2.4532700461    0.1945522913
     H    -0.2047138183    2.6992399789    1.1255840271
     H    -0.0831094020    2.8230482441   -0.4962537716
     N     2.0121117069    0.3429675297   -0.1792656095
     H     2.4603895165    1.1263603938    0.3020135440
     H     2.5581017487   -0.4863153129    0.0665758981
     H     2.1772210054    0.4880049641   -1.1792169240
     O    -0.0481154062   -2.2110149695    0.0685102418
     C     1.0111779156   -2.9592523406    0.5917767924
     C     0.9588313309   -4.2244623881    0.1196623720
     C    -0.1850182430   -4.3007925156   -0.7516775454
     C    -0.7650200411   -3.0800215617   -0.7596028580
     H     1.6607772042   -2.4451061045    1.2832252246
     H     1.6429023909   -5.0258776312    0.3634085506
     H    -1.6377756791   -2.6624698282   -1.2345111878
     H    -0.5294987320   -5.1720794062   -1.2917239841
     O    -2.3225542202   -0.4160784014    0.0710180571
     C    -3.1405527078   -0.9372056842    1.0805934074
     C    -4.4381199109   -0.7827617971    0.7426089468
     C    -4.4688529768   -0.1390945070   -0.5461104713
     C    -3.1878221594    0.0632718046   -0.9216214313
     H    -2.6310913466   -1.3994759393    1.9098021988
     H    -5.2901075645   -1.0996738437    1.3284363933
     H    -2.7066025692    0.4455735267   -1.8066560093
     H    -5.3489157632    0.1210911859   -1.1182653097
     N    -0.1311314223   -0.1846355590    2.3298014433
     H    -0.1500930663   -1.1839721839    2.5487298169
     H     0.7005356767    0.1819753773    2.7993522920
     H    -0.9275265800    0.2254376374    2.8235766093
     O    -0.1544125144    0.1368070190   -2.2207458263
     C    -0.3588678844    1.2586131265   -3.0296800327
     C     0.2825627006    1.1021152284   -4.2091548252
     C     0.9317971970   -0.1824351859   -4.1671954217
     C     0.6455700375   -0.7343454611   -2.9663190242
     H    -1.0009768953    2.0255023441   -2.6257027827
     H     0.2886350511    1.8052530328   -5.0308534443
     H     0.8542317265   -1.6855272751   -2.5019278867
     H     1.5207077406   -0.6354580930   -4.9531012793
