31
-1.5506408318685203e+03 frame 96   xyz file generated by TeraChem
    Fe    -0.1075584887    0.0546261069    0.0712364734
     P    -0.5003994732    2.7125217518   -0.3969628082
     H    -1.2062595370    3.4873442202    0.5494246947
     H     0.5792336980    3.5963141836   -0.6178886438
     H    -1.2644414934    3.0432473395   -1.5381001912
     P     2.5622001360    0.4941987742    0.5055510647
     H     2.9788847302    1.7162404351    1.0783439536
     H     3.2824062878   -0.3794068120    1.3502401503
     H     3.4391762058    0.4772680323   -0.6010983872
     P     0.2626219414   -2.6155871480    0.4839745811
     H     1.5094997413   -3.2298744560    0.2317387448
     H     0.0157693793   -3.1732985409    1.7577367740
     H    -0.5458784927   -3.4881867473   -0.2777224895
     H    -5.3436231912    0.2778565527   -0.5258949251
     H    -5.0001016126   -1.1865336383   -1.4951423104
     C    -4.8291735131   -0.6860160318   -0.5389767819
     N    -3.4238222261   -0.4676236089   -0.3727297431
     C    -2.2836554625   -0.2910452947   -0.2376387168
     H    -5.1909506267   -1.3133084542    0.2792774686
     H    -1.1339148505   -0.1640966031    5.2314459824
     H     0.1558261686    1.0763593393    5.2454252934
     C    -0.7841624496    0.7680144285    4.7812403882
     N    -0.5645641227    0.5566823193    3.3816653519
     C    -0.3885874233    0.3862700161    2.2460893378
     H    -1.5363906489    1.5501534851    4.9087349644
     H     0.7804399285    0.3496721107   -5.1135112917
     H     1.8409569504   -1.0309478735   -4.6983191930
     C     0.8364915089   -0.6124142073   -4.5986002468
     N     0.5494331932   -0.4154535205   -3.2092215388
     C     0.3157837719   -0.2556696991   -2.0824673928
     H     0.1017353735   -1.3038100946   -5.0181715717
