40
-9.3163506502772498e+02 frame 109   xyz file generated by TeraChem
    Fe    -0.0891254730   -0.1084852299   -0.1389997086
     C    -0.0136708812    2.8746105435    0.9676334863
     O    -0.0358660878    2.0542606427    0.0577729638
     H    -0.0234666134    2.5616803062    2.0224328144
     H     0.0157438308    3.9493280925    0.7405523618
     C     3.0878319473    0.4994586845    0.4161294474
     O     2.1027697913   -0.0184149414   -0.0925589542
     H     4.0957787680    0.2601815201    0.0485469035
     H     3.0014915985    1.2119865057    1.2508673551
     O    -0.0129326350   -2.2425289521   -0.3087102535
     C    -0.7899388567   -2.8814979555   -1.3542782132
     C     1.1956547176   -2.9915463051   -0.0288014625
     H     1.6960719298   -2.5029262717    0.8058436150
     H     1.8506557329   -2.9967371883   -0.9051968229
     H     0.9282714378   -4.0162966620    0.2446597031
     H    -1.7005869145   -2.2983039559   -1.4830490835
     H    -1.0432486319   -3.8986313392   -1.0423415201
     H    -0.2175508239   -2.9050421343   -2.2861080780
     O    -2.2262383220   -0.0565360629    0.0272479105
     C    -3.0407272507    1.1191933361   -0.2173124015
     C    -2.9363679359   -1.0136021241    0.8499051652
     H    -2.2883214418   -1.8817415695    0.9644240535
     H    -3.8648595646   -1.3075117435    0.3513137491
     H    -3.1673071475   -0.5732645306    1.8255113608
     H    -2.4530172176    1.8085272825   -0.8202806781
     H    -3.3105132199    1.5862211849    0.7356501359
     H    -3.9483253777    0.8269766814   -0.7534711284
     C    -0.0158924406   -1.0090493888    2.9944683309
     O     0.0127871329   -0.1813617636    2.0922758385
     H     0.0602793941   -0.6932098240    4.0446349051
     H    -0.1201711589   -2.0836181363    2.7817644963
     O    -0.0796050856    0.0914506744   -2.2690855629
     C     1.1225190415    0.3060427044   -3.0560455684
     C    -1.2573116143    0.2851610845   -3.0922183562
     H    -2.1218725098    0.0064322040   -2.4956211955
     H    -1.1911475644   -0.3612722891   -3.9720542487
     H    -1.3255264692    1.3316700931   -3.4054050279
     H     1.9704176768    0.0403816023   -2.4308859146
     H     1.1812450818    1.3546404785   -3.3632500328
     H     1.0923250554   -0.3406358512   -3.9375558749
