23
-1.3797849904120812e+03 frame 123   xyz file generated by TeraChem
    Fe     0.0457121113   -0.0850732669    0.1027505982
     C    -0.3218445929    2.9036955550   -0.8434284372
     O    -0.3045936599    2.0074905459   -0.0039284566
     H    -0.4743475032    3.9446749576   -0.5289756920
     H    -0.1919043508    2.6939654150   -1.9145353234
     C     3.2327549368   -0.0464577100   -0.2114854738
     O     2.0803496015    0.3647583465   -0.2873786058
     H     3.4667948425   -1.0337383948    0.2134352186
     H     4.0643416645    0.5737456138   -0.5727949679
     C     0.3949436588   -2.9720105608    1.1955179218
     O     0.4188934913   -2.1534247717    0.2790142179
     H     0.1567359225   -2.6727645530    2.2254575359
     H     0.6161058235   -4.0272120952    0.9882884618
     S    -2.5515804472   -0.5199972078    0.6029269798
     H    -3.2481648873   -0.3038349206   -0.5327659382
     H    -2.9872008411    0.6069913020    1.2038897239
     C     0.3818008149    0.9297527882    3.0648522481
     O     0.3435251916    0.0436870989    2.2164167714
     H     0.5895239779    0.6793214745    4.1137996684
     H     0.2075799854    1.9820904268    2.7989224399
     S    -0.3050383256   -0.3937139817   -2.5288514644
     H     0.8579645208   -0.9361190938   -2.9453522408
     H    -0.9989440645   -1.5457911346   -2.6390596223
