40
-9.4191623094748093e+02 frame 83   xyz file generated by TeraChem
    Fe     0.0039642569   -0.0254476856   -0.0478180737
     C     0.5696596574    3.2577606812   -0.4789148640
     N     0.3520313037    2.1280343633   -0.3486997625
     C     0.8406063672    4.6794453259   -0.6465867044
     H     0.5492560533    4.9994568244   -1.6521316697
     H     1.9089101462    4.8737868675   -0.5071379136
     H     0.2741912841    5.2572850430    0.0907402807
     C     3.2846308978   -0.5157247929   -0.5145106817
     N     2.1467075051   -0.3640237557   -0.3642735832
     C     4.7160293048   -0.7076823621   -0.7053420253
     H     5.2286819917    0.2589911793   -0.6710675911
     H     4.9039553736   -1.1756390349   -1.6770530176
     H     5.1151903101   -1.3514037779    0.0850127510
     C    -0.5140507145   -3.2890998840    0.4612318211
     N    -0.3376038214   -2.1630715285    0.2571112951
     C    -0.7332282493   -4.7064959210    0.7156843741
     H     0.2227757079   -5.2397515489    0.6985209469
     H    -1.3901665117   -5.1270030824   -0.0525341019
     H    -1.1990057592   -4.8415473580    1.6971497744
     C    -3.2648700880    0.4880866455    0.4524819163
     N    -2.1379509408    0.3111630459    0.2540093355
     C    -4.6823536235    0.7124592154    0.7017414994
     H    -5.0227186973    0.0698138237    1.5201088678
     H    -5.2618908224    0.4813422027   -0.1978567461
     H    -4.8513329096    1.7586912749    0.9764232774
     C     0.5378745512    0.4241615113    3.2468421988
     N     0.3548688353    0.2651031894    2.1148543996
     C     0.7679403401    0.6235508582    4.6721865646
     H    -0.1849411261    0.6002231213    5.2104773144
     H     1.2473223961    1.5930756268    4.8409414573
     H     1.4166797272   -0.1675077907    5.0613217824
     O    -0.2519740481   -0.1588999286   -2.1870431973
     C    -1.1865551097    0.6535910343   -2.9204122701
     C     0.1296415891   -1.3283551853   -2.9339990332
     H     0.8743138086   -1.8617010880   -2.3446766511
     H     0.5623636913   -1.0268209145   -3.8934681984
     H    -0.7425204412   -1.9687475276   -3.1072859887
     H    -1.3840584612    1.5446245996   -2.3260140095
     H    -2.1171678444    0.1010601818   -3.0924152496
     H    -0.7472519193    0.9412877176   -3.8813632709
