39
-8.4590312853621595e+02 frame 78   xyz file generated by TeraChem
    Fe    -0.0007490030   -0.0004140280   -0.0057983671
     N    -0.4638581966    2.2296109027    0.1924255630
     H    -1.1806629660    2.5486668727   -0.4626700259
     H    -0.8113283944    2.4576937724    1.1265840818
     H     0.3313801355    2.8545567161    0.0469670486
     N     2.2257584472    0.2813546335   -0.3342262502
     H     2.5078965815    1.2591633482   -0.4199130064
     H     2.7814175740   -0.0967348969    0.4357436277
     H     2.5654319403   -0.1714026890   -1.1853776476
     N     0.4621823137   -2.2297528924   -0.2051642292
     H     1.1804393847   -2.5496373634    0.4479184106
     H    -0.3327609549   -2.8549062101   -0.0590537357
     H     0.8077818409   -2.4563143753   -1.1403946382
     N    -2.2269740158   -0.2806482153    0.3255188252
     H    -2.5096062741   -1.2578574962    0.4162794157
     H    -2.5653208362    0.1764501432    1.1748624755
     H    -2.7832633167    0.0940856003   -0.4456334294
     C     0.8318012141   -0.2643995845    5.0022856534
     C     0.0817143934   -1.2454401852    4.3518269474
     C    -0.1269167615   -1.1281194396    2.9814878606
     N     0.3587024105   -0.1099803107    2.2399558722
     C     1.0816427773    0.8312778498    2.8846072502
     C     1.3412888590    0.7955353151    4.2505222585
     H     1.0147496096   -0.3242676772    6.0707540725
     H    -0.3359752056   -2.0877472313    4.8933076774
     H    -0.7074857330   -1.8772497297    2.4503431756
     H     1.4645515642    1.6461061402    2.2759508205
     H     1.9295992757    1.5823712333    4.7109351558
     C    -0.8345820608    0.2658875400   -5.0132732108
     C    -0.0818017655    1.2450183314   -4.3630504375
     C     0.1270167952    1.1271331868   -2.9927963772
     N    -0.3609045915    0.1101993186   -2.2510926936
     C    -1.0863521081   -0.8292861431   -2.8955514835
     C    -1.3463917617   -0.7928314664   -4.2613780576
     H    -1.0177990211    0.3262721185   -6.0816663345
     H     0.3378108819    2.0862933355   -4.9046473790
     H     0.7096797047    1.8747776549   -2.4618516053
     H    -1.4710245530   -1.6432730800   -2.2868658452
     H    -1.9367767357   -1.5782180271   -4.7216140258
