32
-1.3172504244773500e+03 frame 65   xyz file generated by TeraChem
    Fe    -0.0436316272    0.0531119772    0.4388150908
     C     0.5588607772    3.0898178845   -0.9782804655
     O    -0.0956674837    2.3363909736   -0.2186739340
     O     0.2338842251    4.4445762595   -0.7380881417
     H    -0.4149265318    4.4008268031    0.0100855678
     C     2.9648173564   -0.8016459506   -0.2286500772
     O     2.0114652387   -0.0151639382    0.1187771865
     O     2.5851086335   -2.1234370698   -0.2380875993
     H     1.6367919935   -2.1964448637    0.0746159443
     C    -0.8678753397   -3.2132406561    0.5384548847
     O    -0.1024524449   -2.1979683625    0.5701897177
     O    -2.2142343590   -2.8416481705    0.4539802961
     H    -2.2585619528   -1.8452705324    0.4496600865
     C    -3.2216555917    0.6699302004   -0.0512857528
     O    -2.1391672567    0.0229402549    0.1488832668
     O    -3.0030297682    2.0274440945   -0.1756556119
     H    -2.0274354028    2.1988286306   -0.0947124045
     C     0.7672414697    0.8590702975    3.4273693565
     O     0.0070606310    0.4492326401    2.5034360734
     O     2.0893316978    1.0146904344    3.0059722320
     H     2.1271243046    0.7537816115    2.0495619232
     C    -0.1621160936   -0.8788174821   -4.7294304297
     C     0.5575403942    0.1985514099   -4.2148191199
     C     0.5447821191    0.4262542407   -2.8342348495
     N    -0.1390094031   -0.3560423604   -1.9883271039
     C    -0.8438090256   -1.3813437319   -2.4809763159
     C    -0.8822379046   -1.6820480514   -3.8452780241
     H    -0.1668838264   -1.0863406249   -5.8007181065
     H     1.1246794561    0.8624276305   -4.8644558962
     H     1.0517553816    1.2805679266   -2.3853048705
     H    -1.3952256678   -1.9698000384   -1.7536920405
     H    -1.4656217616   -2.5312852593   -4.1956025543
