17
-1.9470781245082599e+03 frame 70   xyz file generated by TeraChem
    Fe    -0.0237965686    0.0134511837   -0.1151708657
     S    -0.4224222554    2.6146212860    0.2698375253
     H     0.2232841974    3.2758084386   -0.7156988095
     H     0.4000885208    3.0405090252    1.2528269350
     S     2.5611713123    0.4401859531   -0.6066868658
     H     3.1443086613   -0.7767872971   -0.5304145935
     H     3.0827187184    0.8889535349    0.5560752426
     S     0.3658553463   -2.5747485087   -0.5906756609
     H    -0.5822204531   -2.9743099501   -1.4663945567
     H    -0.1280811833   -3.2855555178    0.4462452252
     S    -2.6430165784   -0.3984566697    0.1623922875
     H    -2.7731975901   -1.0826415106    1.3201087661
     H    -3.1316318726    0.7589570638    0.6612424495
     C     0.3546849441   -0.3064827728    2.0955706424
     O     0.5539182245   -0.4671313343    3.1939300421
     C    -0.3973802926    0.3368094269   -2.3522409952
     O    -0.5852705221    0.4971015568   -3.4515079637
