55
-1.3531513807569800e+03 frame 49   xyz file generated by TeraChem
    Fe    -0.0663178949    0.0219916739   -0.0695434241
     O    -0.0035686328    2.2919379066   -0.0464888407
     C    -1.0734045951    3.1393201409    0.2548460064
     C    -0.6368008675    4.4157559539    0.3297565527
     C     0.7793754021    4.3959401582    0.0662887369
     C     1.1275251513    3.1091257669   -0.1527908394
     H    -2.0261186753    2.6500277874    0.3684486570
     H    -1.2433253775    5.2852680135    0.5432256650
     H     2.0466427187    2.5962461552   -0.3833384805
     H     1.4450524290    5.2478219621    0.0441982640
     O     2.1170425382    0.0196975307   -0.0220318139
     C     2.9435268101    0.2532217592    1.0902609898
     C     4.2325495633    0.0813129974    0.7312313846
     C     4.2489201849   -0.2809407875   -0.6653996856
     C     2.9683952472   -0.3092919621   -1.0888950552
     H     2.4301483908    0.5273247360    1.9968845115
     H     5.0915202030    0.1973271916    1.3779046694
     H     2.4686424790   -0.5175618920   -2.0192051124
     H     5.1220746369   -0.4897127408   -1.2684346542
     O    -0.0091259126   -2.2535466901   -0.0591069564
     C     1.1077123778   -3.0732068589    0.1398686250
     C     0.7186505456   -4.3663831485    0.1812615509
     C    -0.7104049847   -4.3888784157    0.0005963587
     C    -1.1135940943   -3.1072023110   -0.1393431751
     H     2.0503738978   -2.5575328956    0.2189434803
     H     1.3663322195   -5.2210923434    0.3203820343
     H    -2.0587109054   -2.6155507364   -0.2982700853
     H    -1.3463199113   -5.2632496527   -0.0218914865
     O    -2.2080295752    0.0322390957   -0.0420124916
     C    -3.0381085536    0.3499588335   -1.1942468631
     C    -3.0320914816   -0.2478381576    1.1284503515
     H    -2.3648929959   -0.5284175500    1.9383631300
     H    -3.7182027280   -1.0669845764    0.8959660822
     H    -3.5997666589    0.6485526041    1.3933301778
     H    -2.3658552984    0.5734568518   -2.0177028861
     H    -3.6675809490    1.2148948296   -0.9660649988
     H    -3.6653684344   -0.5128794130   -1.4355509381
     O    -0.0391343339    0.0067604750    2.1419396962
     C     0.0990681486   -1.1232985564    2.9621088320
     C     0.1923822577   -0.7357408673    4.2515798721
     C     0.1143227294    0.7036520606    4.2741070532
     C    -0.0226872487    1.1190185373    2.9968854350
     H     0.1141945916   -2.0672968490    2.4439743194
     H     0.3041936069   -1.3904117871    5.1050151293
     H    -0.1337044579    2.0738081894    2.5098347507
     H     0.1532962008    1.3394054321    5.1480892701
     O    -0.0422820998    0.0233793705   -2.2503247461
     C    -0.2506302768   -1.1515104246   -3.0828935112
     C     0.1736033057    1.1999871988   -3.0783759348
     H     0.2456878548    2.0551544200   -2.4126621046
     H    -0.6710359452    1.3232822762   -3.7632286683
     H     1.0972425899    1.0784670634   -3.6517473843
     H    -0.3242012961   -2.0085422464   -2.4193916779
     H     0.5980561545   -1.2716317840   -3.7632202121
     H    -1.1704952933   -1.0293563791   -3.6622574898
