25
-6.6014174495038299e+02 frame 78   xyz file generated by TeraChem
    Fe    -0.0487792268    0.1238673775   -0.1316569907
     O     0.0442119502    2.3159235917   -0.4641643809
     H     0.3219942329    2.6769962449   -1.3235565568
     H     0.3161927030    2.9691412316    0.2033807579
     O     2.0003868525   -0.1860178741    0.5295560246
     H     2.2335652115   -1.1046192414    0.7536386747
     H     2.8236535269    0.3327793216    0.5213737983
     O    -0.1347891469   -2.0504040848    0.2883800692
     H    -0.2934186045   -2.7345311257   -0.3848581573
     H    -0.5591914893   -2.3657127652    1.1050450566
     O    -2.2111140201    0.5399979929   -0.1816116027
     H    -3.0035595480   -0.0226057248   -0.2276531152
     H    -2.4829596652    1.4475527832   -0.4043361839
     O    -0.4089039907    0.3648066651    1.9408988566
     H    -1.2726778208    0.6553259457    2.2793030594
     H     0.2622708266    0.5083029225    2.6294368807
     O     0.1489050145   -0.2214907083   -2.1498337444
     C     1.4429405769   -0.5591434643   -2.7276001935
     C    -0.9066121660   -0.1758981114   -3.1517809889
     H    -1.8316120492    0.0640911305   -2.6299051729
     H    -0.9847292299   -1.1518165434   -3.6387612698
     H    -0.6697803928    0.5942134808   -3.8910549480
     H     2.1632659878   -0.5836392518   -1.9105554311
     H     1.7240801185    0.2005063896   -3.4627123741
     H     1.3801943152   -1.5389733594   -3.2092571887
