15
-1.3749040693752445e+03 frame 52   xyz file generated by TeraChem
    Fe     0.0016633231    0.0002471295    0.0112907205
     C    -0.3648627211    2.2523073784   -0.2470567976
     O    -0.5511712395    3.3561024854   -0.3689070693
     C     2.2514705507    0.3335646094   -0.3639577795
     O     3.3487825129    0.4998357842   -0.5541904899
     C     0.3680358127   -2.2516285836    0.2684102384
     O     0.5542081434   -3.3554927712    0.3898631711
     C    -2.2478773390   -0.3327440038    0.3882085498
     O    -3.3449966310   -0.4985065774    0.5800929321
     S     0.3927147428    0.4618808391    2.6132942997
     H    -0.4379997394   -0.4085921688    3.2312414184
     H     1.5142892775   -0.2372022002    2.9015586297
     S    -0.3875152124   -0.4620542679   -2.5906478348
     H     0.4256742669    0.4253398789   -3.2078576544
     H    -1.5224155669    0.2170717989   -2.8743616147
