11
-1.4972031660863643e+03 frame 33   xyz file generated by TeraChem
    Fe     0.0766801991    0.0822717759    0.0679247256
     C     0.4184202472    2.3723486581    0.4058647365
     O     0.3784830599    3.5032646155    0.3634564003
     C     2.4717199202   -0.2958240779   -0.0434241053
     O     3.5505429424   -0.4264776174   -0.3675835019
     C    -0.3371610580   -2.1795353025   -0.3489233510
     O    -0.7343668564   -3.1615681362   -0.7487005734
    Cl    -2.1953267135    0.4162600427    0.4789017351
     C    -0.0276450550   -0.2978357014    2.4551872943
     O    -0.3463887715   -0.4282840265    3.5356318101
    Cl     0.4859576627    0.4153787658   -2.2039808116
