30
-8.5058180673991876e+02 frame 87   xyz file generated by TeraChem
    Fe    -0.0377436976    0.0438797909   -0.0555064016
     C    -1.0475313538    3.0002961258   -0.3721535496
     O    -0.1472394272    2.1678941472   -0.3307987906
     H    -0.8110063844    4.0596402497   -0.5401684304
     H    -2.0996592828    2.7095004565   -0.2424200633
     C     2.9036249748    1.1264621769   -0.3274164933
     O     2.1172674162    0.2075349491   -0.1205912391
     H     3.9860240067    0.9396682035   -0.3110132129
     H     2.5481418346    2.1460969834   -0.5330236308
     C     0.9709656671   -2.8876956764    0.4630786972
     O     0.0790014595   -2.0712410572    0.2620708720
     H     0.7230638585   -3.9461677213    0.6197275464
     H     2.0281962073   -2.5871006215    0.4892189638
     C    -2.9342949602   -0.9663861130    0.4674419961
     O    -2.1480791609   -0.0897368954    0.1209205182
     H    -4.0106919676   -0.7534589685    0.5096994945
     H    -2.5831797230   -1.9720217377    0.7358868975
     C     0.4907200170    0.7801042994    3.0911330891
     O     0.0543246915    0.2101773799    2.1006846554
     H     1.1301304018    1.6730593593    3.0115619805
     H     0.2493580145    0.4094761758    4.0973592980
     O    -0.0962732907   -0.2479307925   -2.1491920072
     C    -1.2324273919    0.0813898762   -2.9848209576
     C     0.9101324862   -0.9713174296   -2.8979075407
     H     1.7561496365   -1.1348049035   -2.2321055019
     H     1.2256549825   -0.3712842500   -3.7568012543
     H     0.5034143984   -1.9271057842   -3.2431459955
     H    -1.9600605813    0.6011449369   -2.3631871457
     H    -1.6755781606   -0.8360618436   -3.3845346030
     H    -0.9072134739    0.7266446762   -3.8064523259
