21
-8.0762243530470539e+02 frame 77   xyz file generated by TeraChem
    Fe     0.0042169943   -0.0007267510   -0.0007790887
     C    -1.0191715132    2.8887865410    0.5649246044
     O    -0.1367598993    2.0746355367    0.2963558414
     H    -0.7672010746    3.9527253148    0.6608253984
     H    -2.0609833222    2.5726210712    0.7113702173
     C     2.9636610923    0.9991241784   -0.3605067123
     O     2.1025112616    0.1216307004   -0.3463147627
     H     4.0054995728    0.7395963389   -0.5894500799
     H     2.7137991226    2.0475356538   -0.1461859981
     C     1.0259239136   -2.8907865757   -0.5685242128
     O     0.1443278737   -2.0763445595   -0.2981841531
     H     0.7731353888   -3.9544584479   -0.6652571023
     H     2.0678331817   -2.5751618237   -0.7154285144
     C    -2.9555267598   -1.0014611808    0.3571768682
     O    -2.0942666735   -0.1240931592    0.3436510999
     H    -2.7055816283   -2.0499699324    0.1434000018
     H    -3.9975650102   -0.7417688382    0.5850271301
     C     0.3792680159   -0.3306808851    2.2825951235
     O     0.5613515526   -0.4983337187    3.3820606234
     C    -0.3698777757    0.3266263537   -2.2842673684
     O    -0.5519936137    0.4928870751   -3.3839370193
