39
-1.0776716475777378e+03 frame 87   xyz file generated by TeraChem
    Fe    -0.0518608962    0.0815425666   -0.0128167514
     C     0.3894307699    3.0950597505    0.9113931016
     O     0.3174036998    2.2180968427    0.0608963335
     H     0.2561825816    2.8673148324    1.9787704129
     H     0.5912375928    4.1352933558    0.6204348064
     C     3.0765223381   -0.3973468890   -0.7869942576
     O     2.1275650808   -0.2986213738   -0.0231240954
     H     4.0841677881   -0.6070666696   -0.4005228130
     H     2.9517595302   -0.2801817826   -1.8734874372
     C    -0.5511342998   -3.0562123491    0.7356453647
     O    -0.4107507138   -2.0997768384   -0.0121576829
     H    -0.7285525954   -4.0619342748    0.3284862407
     H    -0.5035173261   -2.9399317799    1.8283647987
     C    -3.0673663680    0.5380752993   -0.9274619542
     O    -2.1894266898    0.4404116021   -0.0806461705
     H    -2.8390232346    0.4467561288   -1.9991025176
     H    -4.1088886997    0.7212047235   -0.6288554970
     C    -0.1301249638   -0.2518973684    4.9620877158
     C     1.0415101580   -0.5127193390    4.2497795675
     C     1.0276560654   -0.3984567082    2.8643575913
     N    -0.0798159402   -0.0462137558    2.1689780067
     C    -1.2124494657    0.2050085054    2.8685249486
     C    -1.2760923492    0.1145295962    4.2542463650
     H    -0.1494801032   -0.3312666966    6.0448035982
     H     1.9575771162   -0.7990536852    4.7555969389
     H     1.9169663877   -0.5862950163    2.2752989615
     H    -2.0824404642    0.4855580244    2.2867327761
     H    -2.2098731760    0.3279023763    4.7636963963
     C     0.2498350538    0.0874255037   -4.9914202648
     C    -0.1044940513   -1.0712078821   -4.2982426000
     C    -0.1807393003   -1.0296881377   -2.9108842364
     N     0.0731866267    0.0924004524   -2.1958698702
     C     0.4140784999    1.2124933580   -2.8769285921
     C     0.5138606527    1.2485269541   -4.2631839356
     H     0.3180917448    0.0856865066   -6.0750678949
     H    -0.3190522143   -1.9977275865   -4.8202927043
     H    -0.4494622672   -1.9077523014   -2.3359617758
     H     0.6077510822    2.0951093090   -2.2794484208
     H     0.7918377078    2.1735607679   -4.7571991106
