19
-1.2702691538649974e+03 frame 33   xyz file generated by TeraChem
    Fe     0.0005996342    0.0004377507    0.0009590696
     N    -0.2226188719    2.2218667767    0.3677185701
     H    -1.1758897362    2.4941961649    0.6001320231
     H     0.3749150524    2.5363195029    1.1306407927
     H     0.0247849773    2.7090210592   -0.4928118604
     N     2.2273346267    0.2661985719   -0.3013514889
     H     2.4974977304    1.2448897839   -0.3769312426
     H     2.6988557524   -0.1245703320    0.5137397077
     H     2.5585766989   -0.1959599220   -1.1464948928
     N     0.2211711060   -2.2205573119   -0.3712363450
     H     1.1761474495   -2.4953408293   -0.5935094781
     H    -0.0404932380   -2.7162840074    0.4800461853
     H    -0.3674412632   -2.5231358629   -1.1459003416
     N    -2.2256368264   -0.2678133988    0.3052109988
     H    -2.4986248956   -1.2476043672    0.3510252193
     H    -2.5429026108    0.1663600988    1.1704268363
     H    -2.7075403276    0.1508033211   -0.4895985043
    Cl     0.3925664184   -0.3839322957    2.3903295343
    Cl    -0.3913068185    0.3851075600   -2.3886429605
