46
-9.8644006778645985e+02 frame 68   xyz file generated by TeraChem
    Fe    -0.0958872833    0.0032109434   -0.0389122369
     C     0.4157248681    3.2881009554   -0.4784253976
     N     0.2474603074    2.1511136710   -0.3309815260
     C     0.6252963641    4.7178052232   -0.6651571362
     H     0.4058221663    4.9948150334   -1.7015052417
     H     1.6655885856    4.9746136184   -0.4401237649
     H    -0.0336852834    5.2828687341    0.0021457961
     C     3.2045798378   -0.5042485887    0.3401189243
     N     2.0641098195   -0.3399491933    0.2219021225
     C     4.6387269801   -0.7104208287    0.4895365376
     H     5.1571598025    0.2538654907    0.4784025521
     H     5.0141414905   -1.3274433568   -0.3334124672
     H     4.8466212420   -1.2162961249    1.4380662808
     C    -0.6588567458   -3.2735439903    0.3721981243
     N    -0.4628666117   -2.1388516304    0.2418668680
     C    -0.9062692341   -4.6998095788    0.5372935933
     H     0.0410486994   -5.2480844696    0.5089892571
     H    -1.5506397553   -5.0622341790   -0.2704993803
     H    -1.3994019121   -4.8858621591    1.4969692066
     O    -2.1781798742    0.4018349960   -0.0886060071
     C    -2.8572717730    1.1149066346   -1.1464344981
     C    -3.0957624492   -0.1411469551    0.8867317089
     H    -2.4916097812   -0.5375034630    1.7007952566
     H    -3.7013577853   -0.9306957125    0.4304412531
     H    -3.7463977188    0.6568098167    1.2578072191
     H    -2.0996322344    1.4151293004   -1.8681595751
     H    -3.3613827042    1.9931346072   -0.7313477183
     H    -3.5908853060    0.4571756212   -1.6232476665
     O    -0.1338102955    0.1836182669    2.2105603101
     C     0.6153892287   -0.6555590694    3.1078783147
     C    -0.4549095245    1.4496098009    2.8177396487
     H    -1.0986937234    1.9876355847    2.1225113958
     H     0.4573214691    2.0260356920    3.0096471481
     H    -0.9881238333    1.2843461006    3.7599509178
     H     0.8023171551   -1.6015190199    2.6004349876
     H     0.0305923029   -0.8335621118    4.0164173830
     H     1.5649234233   -0.1769718942    3.3727321751
     O    -0.0431936207   -0.1882868250   -2.2083581944
     C     1.0667483573    0.2851608770   -2.9993928648
     C    -0.7726615527   -1.2310381951   -2.8855167823
     H    -1.6524258392   -1.4532260792   -2.2820312866
     H    -0.1498018512   -2.1253705485   -2.9940336378
     H    -1.0850153529   -0.8764745932   -3.8728899785
     H     1.5640010882    1.0653358020   -2.4251919787
     H     0.6937170700    0.6940882120   -3.9436842190
     H     1.7620734926   -0.5368333297   -3.1998812054
