25
-6.3623899558267453e+02 frame 98   xyz file generated by TeraChem
    Fe     0.1775970504    0.0088226380   -0.0191724294
     N    -0.1012609263    2.1376231321    0.2500108122
     H    -1.0791446758    2.3617402258    0.0550509245
     H     0.0481297381    2.3609995467    1.2372712589
     H     0.4646839363    2.7968525371   -0.2883011753
     N     2.3687288716    0.0250830319    0.1775554508
     H     2.8248208911    0.8224155106   -0.2726245266
     H     2.6573134830    0.0610682566    1.1583695141
     H     2.8286929250   -0.7989240404   -0.2177467716
     N    -0.0949568024   -2.1184516679   -0.2986935188
     H     0.4631321378   -2.7785767547    0.2468129576
     H    -1.0761352373   -2.3484975524   -0.1284508259
     H     0.0763749522   -2.3312710921   -1.2846868982
     C    -3.4234952489    0.0177158087   -0.1045624940
     O    -2.2015857554    0.0081187143   -0.0627064022
     H    -4.0044670775   -0.9176368310   -0.1375740918
     H    -3.9910589496    0.9618289123   -0.1098702852
     C    -0.1409116254   -0.6210123329    3.2827421424
     O     0.0767626165   -0.0321527970    2.2317780047
     H    -0.0660128372   -0.0947212640    4.2454106864
     H    -0.4151035398   -1.6873008279    3.3029035506
     C     0.2041161707    0.5848909338   -3.3533635947
     O     0.2036494371    0.0406409096   -2.2572182814
     H     0.2116224694    1.6812572018   -3.4543345174
     H     0.1974968501   -0.0132331991   -4.2760877287
