37
-1.0423195360020406e+03 frame 70   xyz file generated by TeraChem
    Fe     0.0680233882   -0.0090156054    0.1863559824
     O    -0.0392205245    2.2206290909    0.1309630256
     C    -1.0867842284    2.9239617181    0.7399361277
     C    -1.2440120477    4.1214758223    0.1368532748
     C    -0.2569010929    4.2039652162   -0.9100728104
     C     0.4456097802    3.0503960025   -0.8913132158
     H    -1.5800490948    2.4194322215    1.5549715779
     H    -1.9688897882    4.8784926305    0.4036231589
     H     1.3012571516    2.6761804848   -1.4312875697
     H    -0.0912841911    5.0386882485   -1.5778005058
     O     2.2190613069    0.0212061168   -0.1062984988
     C     3.1156418577    1.0265098526    0.2923684433
     C     4.3741837402    0.6579472759   -0.0277980747
     C     4.2964822678   -0.6363763083   -0.6567424819
     C     2.9949879190   -0.9916288211   -0.6897657111
     H     2.6672378306    1.9006788712    0.7375862739
     H     5.2706049329    1.2345918201    0.1559159847
     H     2.4518151353   -1.8608818764   -1.0247778130
     H     5.1243167456   -1.2229419074   -1.0312359278
     O     0.0721229473   -2.1843303206    0.1680049751
     C     0.5580182881   -3.0306249202    1.1762793429
     C     0.5509615768   -4.3051793280    0.7350532059
     C     0.0390777942   -4.2907267419   -0.6139553295
     C    -0.2404845965   -3.0077988074   -0.9261139151
     H     0.8274358927   -2.5375353719    2.0958335984
     H     0.8657081668   -5.1740537651    1.2968409491
     H    -0.6609872087   -2.5018835274   -1.7803081382
     H    -0.1059032858   -5.1471108019   -1.2585723637
     O    -2.0091282005   -0.1967923366    0.7043344959
     H    -2.7274736716    0.0316149972    0.0867064921
     H    -2.2799575763   -1.0370277973    1.1194795321
     O     0.4548651407    0.0874447663    2.3020125793
     H    -0.1017448040    0.5606740809    2.9442073387
     H     1.3720530253    0.1522135637    2.6219229878
     O    -0.3358597669    0.1010223516   -1.9215524602
     H     0.3544387859   -0.1401363411   -2.5657708032
     H    -0.7707870055    0.8927815919   -2.2897418019
