17
-6.5526487060646252e+02 frame 49   xyz file generated by TeraChem
    Fe    -0.0030409263    0.0040567783    0.0136860725
     O    -0.2582791854    2.1072840061    0.3353247798
     H    -0.3549273969    2.7935742483   -0.3490652869
     H    -0.4476243545    2.5397235523    1.1873184935
     O     2.0362667560    0.3033684803    0.3392668015
     H     2.7590553726   -0.3499149659    0.3449440003
     H     2.4281170924    1.1832787774    0.4855697765
     O     0.2528229116   -2.0987066303   -0.3073497826
     H     0.4419319894   -2.5318224593   -1.1590688067
     H     0.3489825384   -2.7847044417    0.3774214618
     O    -2.0421432340   -0.2944020363   -0.3107407245
     H    -2.4341347015   -1.1740540053   -0.4583860712
     H    -2.7647311897    0.3591114034   -0.3191507874
     C    -0.3403413767   -0.3784397535    2.3190724630
     O    -0.5148571924   -0.5636652130    3.4168247668
     C     0.3387552149    0.3855905758   -2.2910842625
     O     0.5162668151    0.5700818089   -3.3884810967
