29
-1.5265393842718508e+03 frame 6   xyz file generated by TeraChem
    Fe     0.0022451931    0.0032655209    0.0004288422
     C     0.0009999379    3.3488880120    0.0038582997
     N     0.0019863787    2.1907106430    0.0024134241
     C    -0.0002293684    4.8045070980    0.0057160955
     H    -0.2779791003    5.1775802439   -0.9855759261
     H     0.9969578231    5.1771830847    0.2617474338
     H    -0.7206907319    5.1751858373    0.7422618419
     C     3.3752593799   -0.0060700362    0.0045339307
     N     2.2170977259   -0.0003732659    0.0034397193
     C     4.8322070778   -0.0136295309    0.0057924079
     H     5.2099637024    1.0140202048    0.0052602259
     H     5.2041795112   -0.5295590052   -0.8852590489
     H     5.2027090007   -0.5281070463    0.8982901714
     C    -0.0031694391   -3.3425696930    0.0053910580
     N     0.0006101121   -2.1843996916    0.0038619687
     C    -0.0088644412   -4.7981228942    0.0070468235
     H     1.0191329554   -5.1750348480    0.0138101643
     H    -0.5199601631   -5.1691126179   -0.8875005422
     H    -0.5309309812   -5.1671187290    0.8960529340
     C    -3.3709661461    0.0022805878    0.0029846164
     N    -2.2127907107    0.0041000192    0.0026709652
     C    -4.8279866902   -0.0000958878    0.0033577825
     H    -5.1998907290   -0.7390610386    0.7204259597
     H    -5.2021693574   -0.2500860365   -0.9945776055
     H    -5.2016255317    0.9892013791    0.2867490665
     C     0.0014634096    0.0048904927    2.2364738900
     S     0.0010360646    0.0069212430    3.7567820643
     C     0.0036749779    0.0022551368   -2.2338457623
     S     0.0057578915    0.0015935714   -3.7541130170
