19
-8.0639532353683944e+02 frame 122   xyz file generated by TeraChem
    Fe    -0.1356791655   -0.1202102036   -0.2403203209
     C     0.1474544249    2.1927329838   -0.6391242938
     O     0.2551288136    3.2937002637   -0.8527141585
     C     2.2540320409   -0.2156400062   -0.6334334914
     O     3.3524812126   -0.2798927475   -0.8755544450
     C     0.3652223847   -3.2924108460    0.1386673514
     O    -0.1090051701   -2.1597925572    0.1226798239
     H    -0.2660053217   -4.1483942791    0.4119009557
     H     1.4192292922   -3.4758739197   -0.1142142912
     C    -3.1869352398    0.1131453223    0.6050200375
     O    -2.1537664337    0.3331009197   -0.0259325791
     H    -4.1203908458    0.6095048828    0.3089467381
     H    -3.2032678752   -0.5725288003    1.4640441310
     C     0.2612425246    0.2135849693    2.0485464191
     O     0.4629182896    0.3570579884    3.1476896026
     C    -1.0070513648   -0.3679754106   -3.2906269948
     O    -0.3497958759   -0.4994198481   -2.2617276693
     H    -0.6447625239   -0.8036678897   -4.2310240198
     H    -1.9594167012    0.1812655935   -3.2950425180
