13
-1.7715325286303921e+03 frame 14   xyz file generated by TeraChem
    Fe    -0.1367755571    0.0003178981    0.0122654304
     C    -0.0584056626    2.3575645856    0.0130799881
     O    -0.0534044743    3.4847812140    0.0132968495
     C     2.2771341206   -0.0005772025    0.0121975774
     O     3.4047175369   -0.0008135200    0.0125888178
     C    -0.0574764243   -2.3573869502    0.0123784764
     O    -0.0523598585   -3.4846045904    0.0122874196
     C    -2.3229784938   -0.0009396212    0.0040154710
     S    -3.8361544821   -0.0019729114   -0.0019222574
     C     0.0595537582    0.0002598947    2.2569088890
     S     0.1694823112    0.0003658510    3.7640254063
     C     0.0656460500    0.0011351374   -2.2328371366
     S     0.1798842996    0.0018707416   -3.7396691001
