25
-7.2801673242601225e+02 frame 59   xyz file generated by TeraChem
    Fe     0.0728951796   -0.0578876666    0.1103599319
     N    -0.2968225976    2.1484462100   -0.2445790569
     H    -1.2888631708    2.2604507549   -0.0385674959
     H     0.1918332041    2.9670187195    0.1128906065
     H    -0.2054623592    2.1141336285   -1.2626698290
     N     2.3098998717    0.2243383457   -0.3007441238
     H     2.7557976004    1.0979804060   -0.0276929811
     H     2.9125776940   -0.5411608354   -0.0057073917
     H     2.2440604187    0.2021526938   -1.3197355201
     N     0.3787752947   -2.2422514474   -0.2704379178
     H     1.1205746089   -2.8384480917    0.0942042081
     H    -0.5089556032   -2.7070272131   -0.0808688745
     H     0.4692627776   -2.1672127504   -1.3100868632
     C    -2.4092702629   -0.3383066063    1.5346505206
     O    -1.9312708374   -0.3218290685    0.3485631644
     O    -3.7451838475   -0.5174716698    1.5432959874
     H    -4.0359555060   -0.6015923052    0.6010336690
     N     0.3274248095   -0.0644490726    2.3329207405
     H    -0.6999764005   -0.1406690188    2.5218488478
     H     0.7823565873   -0.8762516209    2.7483579635
     H     0.6795391687    0.7652073602    2.8087184530
     C     0.3333079198   -0.8520314179   -2.8085963536
     O     0.1319496462    0.2016052290   -2.1230284917
     O     0.1851330089   -0.6467076601   -4.1386043542
     H    -0.0787482461    0.3000966115   -4.2566653331
