33
-9.0001340507387408e+02 frame 160   xyz file generated by TeraChem
    Fe    -0.0011471507   -0.0026462541    0.3773507198
     H     1.7676534735    4.9718083017    0.1014406297
     H     0.4866456357    5.0374762376   -1.1447244005
     C     0.7224929910    4.7424379678   -0.1192455994
     N     0.5105609851    3.3342650056    0.0202831212
     C     0.3374753439    2.1903922236    0.1309097210
     H     0.0693661601    5.2725681629    0.5780556715
     H     5.2742532516   -0.0719799468    0.5763544450
     H     4.9731266310   -1.7715638611    0.1045799629
     C     4.7437418537   -0.7269962859   -0.1188804019
     N     3.3356459840   -0.5145746506    0.0206902841
     C     2.1918250699   -0.3411465381    0.1313014568
     H     5.0383096998   -0.4940190291   -1.1451519634
     H    -0.0683017478   -5.2776888105    0.5796336563
     H    -1.7675033785   -4.9782141911    0.1053846803
     C    -0.7228276390   -4.7479748852   -0.1166729848
     N    -0.5118118027   -3.3396547211    0.0227421914
     C    -0.3393163717   -2.1956697650    0.1331083340
     H    -0.4881736248   -5.0426691673   -1.1425254278
     H    -5.2818228419   -0.1058043501    0.3541084431
     H    -5.0130885467    1.6627228955    0.4009590979
     C    -4.7464353628    0.7302437670   -0.1020732064
     N    -3.3382649029    0.5130863954    0.0299057416
     C    -2.1943600286    0.3371359778    0.1355900228
     H    -4.9978705063    0.7963880625   -1.1635285697
     H    -0.2716776508   -0.9916004060    5.5373413603
     H     0.9947060402    0.2732608417    5.5357426948
     C    -0.0032349346    0.0055662799    5.1802232818
     N    -0.0015968962    0.0021088796    3.7497757102
     C    -0.0007492337   -0.0002452735    2.5897753158
     H    -0.7339654822    0.7376168988    5.5324643940
     C    -0.0034434413   -0.0038456288   -2.1934081591
     O    -0.0045031357   -0.0044467061   -3.3236209293
