13
-7.6240720332264220e+02 frame 7   xyz file generated by TeraChem
    Fe    -0.0000097050   -0.0000105686   -0.0036939078
     C    -0.0000228199    2.3921485686   -0.0040470852
     O     0.0000998115    3.5246905082   -0.0042675515
     C     2.3921504981    0.0000293760   -0.0040690805
     O     3.5246926706    0.0001810423   -0.0043084098
     C     0.0000055821   -2.3921536039   -0.0040938567
     O    -0.0001115843   -3.5246958454   -0.0043325730
     C    -2.3921532749   -0.0000465167   -0.0040764800
     O    -3.5246956966   -0.0001883415   -0.0043039941
     C     0.0000221969    0.0000096967    2.0506362197
     N     0.0000494955    0.0000315003    3.2204123257
     C    -0.0000120535    0.0000002784   -2.0580957924
     N    -0.0000148260    0.0000038872   -3.2278724953
