49
-1.2935523518305704e+03 frame 82   xyz file generated by TeraChem
    Fe     0.0420552232   -0.0073327290    0.0544062527
     C     1.2135397584    4.1969666323    0.3447447010
     C     1.4105994302    2.8842773029    0.0170574446
     N     0.2955928744    2.1437684580    0.3754181454
     C    -0.5628066213    3.0038320080    0.9102003457
     N    -0.0438261804    4.2509427116    0.9115710796
     H    -0.4990891290    5.0814168394    1.2689855890
     H     1.8333345703    5.0729848025    0.2313125160
     H     2.2689200720    2.4249178540   -0.4475942984
     H    -1.5377475338    2.7593488253    1.3032226330
     C     4.3599454343   -0.8492111292   -0.2482132308
     C     3.1053466865   -0.6873629174   -0.7671600017
     N     2.2144387804   -0.3726268055    0.2463537257
     C     2.9292564749   -0.3495660377    1.3658976157
     N     4.2262192821   -0.6300289952    1.1073653207
     H     4.9707769442   -0.6705321916    1.7919996941
     H     5.3072053646   -1.0952950592   -0.7027899858
     H     2.7773871605   -0.7837782215   -1.7897199192
     H     2.5515111928   -0.1443512264    2.3559849081
     C     0.0415149147   -4.3655786358   -0.4254840527
     C     0.4867002465   -3.1914808225    0.1152614004
     N    -0.3007773990   -2.1433450096   -0.3353740596
     C    -1.2060323588   -2.6837317945   -1.1423921130
     N    -1.0324897081   -4.0211596964   -1.2207407410
     H    -1.5913341807   -4.6597845026   -1.7726417661
     H     0.3815572908   -5.3846953895   -0.3244799147
     H     1.3162714453   -3.0259494199    0.7841647266
     H    -1.9786904390   -2.1492093125   -1.6731355129
     C    -3.3292675580    0.5642895561   -0.4347947423
     N    -2.2020313212    0.3472165106   -0.2769218903
     C    -4.7488692917    0.8384630385   -0.6315428248
     H    -5.3347168726    0.3834308362    0.1732473841
     H    -5.0827455380    0.4293239612   -1.5902456215
     H    -4.9246056681    1.9188811634   -0.6308347510
     C    -0.3270337057   -0.0526117076    4.4772520146
     C     0.0853247517    0.4822779903    3.2867532735
     N    -0.3133198649   -0.3348315317    2.2398493481
     C    -0.9616862190   -1.3475627878    2.7989778182
     N    -0.9900463443   -1.2138952593    4.1456780655
     H    -1.4217502876   -1.8587715900    4.7955630988
     H    -0.2148969163    0.2780987885    5.4984058658
     H     0.6287760057    1.3983233376    3.1134054394
     H    -1.4048095553   -2.1812225033    2.2762361225
     C     0.4482204409    0.6648333870   -3.2850807191
     N     0.3312415344    0.3752261550   -2.1696469884
     C     0.6001760884    1.0308117878   -4.6888397099
     H     1.6047055447    1.4279919918   -4.8657277078
     H    -0.1352636493    1.7955280361   -4.9577170599
     H     0.4490110617    0.1528023080   -5.3246260580
