49
-1.6724688509759912e+03 frame 64   xyz file generated by TeraChem
    Fe     0.0076324759   -0.0034832186    0.0135688078
     O     0.0027744096    2.0991946590   -0.1851280049
     C    -1.1332167401    2.9219623810   -0.3399375966
     C    -0.7363803198    4.1706604770   -0.6532286815
     C     0.7058235266    4.1697937010   -0.7079043035
     C     1.1236778317    2.9206632276   -0.4248418330
     H    -2.0782953677    2.4342637073   -0.1723312557
     H    -1.3882435578    5.0164904833   -0.8246570988
     H     2.0792239485    2.4347806408   -0.3255704301
     H     1.3435676641    5.0152890088   -0.9273930392
     O     2.2439472380    0.0086284074    0.1197108351
     C     2.9788877065    0.2116763883    1.3012806459
     C     4.2951546176    0.2703138744    1.0111928268
     C     4.4297675375    0.1001208058   -0.4140696768
     C     3.1870519057   -0.0529966412   -0.9166823283
     H     2.3926611702    0.2822842738    2.2007824779
     H     5.0959353812    0.4164505052    1.7232163072
     H     2.7872444586   -0.2114513466   -1.9037670691
     H     5.3504970447    0.0920587554   -0.9814234143
     O     0.0058193898   -2.1614970273    0.0712917210
     C     1.1117244035   -3.0012636035    0.2990679534
     C     0.7147798740   -4.2881402634    0.2238107977
     C    -0.6987682484   -4.2909265030   -0.0653093917
     C    -1.0984361511   -3.0060728667   -0.1497645711
     H     2.0436885461   -2.4932694182    0.4831486517
     H     1.3480531279   -5.1548430794    0.3563984469
     H    -2.0321224524   -2.5019126364   -0.3365028475
     H    -1.3302248977   -5.1599206827   -0.1906398715
     O    -2.2554179948   -0.0146314202    0.1502186915
     C    -2.9596754038   -0.1337350693    1.3600014955
     C    -4.2855207301   -0.1668982949    1.1149766738
     C    -4.4603475913   -0.0660223695   -0.3116751582
     C    -3.2314513107    0.0217089657   -0.8624395903
     H    -2.3553601135   -0.1761027542    2.2487147776
     H    -5.0662667704   -0.2532355397    1.8581604904
     H    -2.8635115903    0.1114172991   -1.8707403228
     H    -5.3975803340   -0.0605761660   -0.8514188935
     O     0.0124846185    0.1025747306    2.2606691947
     C    -0.1379646194    1.2654802541    3.0294829309
     C    -0.2113486453    0.9350122747    4.3367840035
     C    -0.1066163160   -0.4997649113    4.4231274495
     C     0.0257702662   -0.9697248658    3.1639535135
     H    -0.1630009363    2.1907295228    2.4779510633
     H    -0.3249200723    1.6261137771    5.1607973473
     H     0.1358388001   -1.9466234519    2.7214283652
     H    -0.1268497160   -1.0967908690    5.3246346779
     S    -0.2290964951   -0.3717293338   -2.6218355919
     H     0.6350596209   -1.3653235977   -2.9157158729
     H     0.4955604733    0.5993845375   -3.2167538900
