19
-2.6112589246008893e+03 frame 164   xyz file generated by TeraChem
    Fe     0.1621150479   -0.0971122274   -0.1607610982
     S     0.5455782918    2.5425512876   -0.4175893716
     H    -0.5081908691    2.7782799022   -1.2352714191
     H    -0.0236941756    3.1275420132    0.6576486319
     S     2.8073745458   -0.4529331551   -0.5918261835
     H     3.1314137465    0.7063301119   -1.2020566625
     H     2.7758142207   -1.1557476820   -1.7431505507
     S    -0.1681852142   -2.7184776102    0.4436857745
     H    -0.6914595453   -3.1138938151   -0.7356028103
     H     1.0052796203   -3.3571629472    0.2495382246
     S    -2.2491760351    0.3228958082    0.8877298691
     H    -2.7398675884    0.9498986966   -0.2126535029
     H    -2.9201203002   -0.8251159468    0.6573033531
     S     0.9875858733    0.3012622219    2.4757158787
     H     0.1176314637   -0.4296247433    3.2028546726
     H     2.0211545839   -0.5427409112    2.6761121112
     S    -0.3364082800   -0.4008114796   -2.5100127819
     C    -1.5530401222    0.7641870826   -2.4821401930
     N    -2.3639448282    1.6002417283   -2.3444194348
