18
-2.2331607892485463e+03 frame 81   xyz file generated by TeraChem
    Fe     0.0325023076    0.0284044003    0.0613991346
     S    -0.3795732085    2.6334881156   -0.2961662882
     H    -0.0979447634    2.9182244929   -1.5863825398
     H     0.7220140564    3.2471708597    0.1889798364
     S     2.6447796513    0.4242781726   -0.3619322777
     H     3.2311830215   -0.5767990854    0.3310569781
     H     2.9087045105   -0.1212725035   -1.5700519301
     S     0.4717566269   -2.5810309633    0.4255248769
     H    -0.1407025064   -3.2317470728   -0.5876126197
     H    -0.3870086724   -3.0302416144    1.3661659872
     S    -2.6059759655   -0.3951897854    0.2561583414
     H    -2.8168919620   -0.5817063019    1.5766042017
     H    -3.1580628283    0.8384246412    0.2360264991
     S     0.5612453126    0.5480893076    2.5925815963
     H    -0.4482063971    1.3100686612    3.0654709163
     H     0.2559496087   -0.5263841553    3.3505956378
     C    -0.3089480579   -0.3549079106   -2.1823555541
     O    -0.4879963889   -0.5533514584   -3.2778919734
