40
-1.8424570890504083e+03 frame 100   xyz file generated by TeraChem
    Fe     0.1326132224    0.1831350315    0.0577513149
     O     0.1663034344    2.4200476031    0.0460152173
     C    -0.9068099568    3.3230647556    0.0473253148
     C    -0.4560044169    4.5682383980   -0.2136661791
     C     0.9705594596    4.4763184187   -0.3949753417
     C     1.3133206503    3.1812128286   -0.2343156506
     H    -1.8755799248    2.8974720332    0.2488924635
     H    -1.0591348624    5.4643641624   -0.2677600922
     H     2.2372959526    2.6287671661   -0.2487817965
     H     1.6488006018    5.2908769421   -0.6096222551
     O     2.3768127959    0.1889058281    0.1691676117
     C     3.1307957326    0.4857174470    1.3132049535
     C     4.4327269455    0.2136937691    1.0815963333
     C     4.5331385574   -0.2831588051   -0.2672809406
     C     3.2857058644   -0.2873726144   -0.7842235728
     H     2.5704747068    0.8656430419    2.1507176698
     H     5.2445375666    0.3478052757    1.7834107099
     H     2.8693138395   -0.5421777835   -1.7454184351
     H     5.4350719077   -0.5908904380   -0.7786707428
     P     0.4755200725   -2.4668813185   -0.2673358951
     H     1.5060636205   -3.0995048107    0.4590049926
     H    -0.5676052712   -3.3872335333   -0.0306446006
     H     0.8399510714   -2.8829472114   -1.5650977404
     P    -2.4897739470   -0.1889940408    0.4035983836
     H    -2.7822208816   -0.9270305686    1.5693910795
     H    -3.4185184270    0.8605466801    0.5658238412
     H    -3.2017789112   -0.9619703021   -0.5381407046
     O     0.1359405462    0.1566778960    2.2970917162
     C    -0.4764759945    1.1756740107    3.0406920827
     C    -0.7181214356    0.7365748787    4.2948111654
     C    -0.2433331969   -0.6219016285    4.3721919604
     C     0.2638460758   -0.9374957709    3.1613333944
     H    -0.6050761322    2.1103812305    2.5198726754
     H    -1.1671702963    1.3106586734    5.0939173710
     H     0.7637375294   -1.8018677435    2.7558637815
     H    -0.2690127849   -1.2676808310    5.2393125951
     P    -0.0940632939    0.6061437303   -2.5846773750
     H    -0.5964809313   -0.4028611412   -3.4326375832
     H    -0.9565447426    1.6636635137   -2.9383696229
     H     1.0461114053    0.9851347426   -3.3231833750
