19
-1.5020247722583149e+03 frame 77   xyz file generated by TeraChem
    Fe    -0.0026868316    0.0047068730    0.0128137790
     C     0.7009271189    2.8073719191   -1.1429173754
     O     0.2141452612    2.2341485319   -0.1833500255
     H     1.0183682527    2.2515616713   -2.0377611618
     H     0.8234312157    3.9038968743   -1.1240479126
     C     2.8564950445   -0.1937727056    1.2763639145
     O     2.2510651183   -0.0728241378    0.2257002581
     H     3.9596059773   -0.2270263715    1.2764699369
     H     2.3234132745   -0.2633142023    2.2365318548
     C    -0.7031403635   -2.7970881934    1.1716364341
     O    -0.2239007832   -2.2220882027    0.2093609244
     H    -1.0110942286   -2.2431365209    2.0709385528
     H    -0.8286321381   -3.8932119972    1.1503585108
     C    -2.8610671875    0.2067502453   -1.2517693855
     O    -2.2564409421    0.0857453968   -0.2006612811
     H    -2.3272590344    0.2748030999   -2.2116551944
     H    -3.9641112168    0.2415643205   -1.2525353478
    Cl    -0.2776319601    0.2846176562    2.3520995071
    Cl     0.2736366204   -0.2746421328   -2.3260572297
