46
-1.2000746683473740e+03 frame 70   xyz file generated by TeraChem
    Fe    -0.1331676915    0.0033690885    0.0415287069
     C     0.0412674717    3.4368639176   -0.4488436347
     N    -0.0434953178    2.2922266044   -0.2883479652
     C     0.1474362419    4.8780064080   -0.6502199524
     H    -0.1037311720    5.1327294796   -1.6847063035
     H     1.1691201658    5.2109672807   -0.4415343495
     H    -0.5390916108    5.4024644051    0.0219996146
     C     3.2531795914    0.2056185824    0.5709945681
     N     2.1118809616    0.2299141940    0.3764031087
     C     4.6901164404    0.1733370108    0.8167071494
     H     5.0575995459    1.1808804484    1.0354556286
     H     5.2121452913   -0.2118165740   -0.0649356645
     H     4.9077493277   -0.4767232434    1.6701481915
     C     0.3487329872   -3.3133941484    0.5520420623
     N     0.1230458574   -2.1911897294    0.3744257760
     C     0.6291758053   -4.7265326292    0.7742594875
     H     1.7108333883   -4.8878472765    0.8218934886
     H     0.2187157618   -5.3236850341   -0.0461927922
     H     0.1794244389   -5.0550927284    1.7165321671
     C    -4.3626850553   -0.8443010032   -0.5176987250
     C    -3.0650182441   -1.1921069281   -0.2622735437
     N    -2.2679114677   -0.0584707141   -0.2878222791
     C    -3.0778749482    0.9573205079   -0.5555563381
     N    -4.3482060873    0.5220880436   -0.7006705435
     H    -5.1518866423    1.1016428225   -0.9082693504
     H    -5.2688064331   -1.4265841472   -0.5836054629
     H    -2.6553951157   -2.1696229196   -0.0601356095
     H    -2.7809627738    1.9901989007   -0.6480277502
     C    -1.2733281819    0.0690108973    4.2669786156
     C    -1.3433544173   -0.3862734441    2.9797658424
     N    -0.4369490478    0.3008024650    2.1905555133
     C     0.1716327139    1.1614246696    2.9960265332
     N    -0.3038928885    1.0509205837    4.2565311859
     H    -0.0032452737    1.5962803753    5.0542811528
     H    -1.8080339524   -0.2044579629    5.1634235653
     H    -1.9881529566   -1.1473679511    2.5687097414
     H     0.9429786640    1.8596801763    2.7089981284
     C     0.0938376884   -1.1441319510   -4.1850614475
     C    -0.4018379126   -1.2266277682   -2.9135859208
     N     0.2482209094   -0.3163488150   -2.0976410717
     C     1.1265634175    0.3067383443   -2.8722998915
     N     1.0648130615   -0.1649555205   -4.1376163841
     H     1.6325477601    0.1459694542   -4.9155516731
     H    -0.1480300598   -1.6734900108   -5.0936925549
     H    -1.1837844805   -1.8679500467   -2.5379444635
     H     1.8081081072    1.0825653949   -2.5583739768
