27
-1.5748836830493965e+03 frame 87   xyz file generated by TeraChem
    Fe     0.5755551621   -0.0104698055    0.6021021473
     H    -0.2813008340    5.3146305747    0.4834952704
     H    -1.3297888047    4.4505921245   -0.6756498822
     C    -0.9779362289    4.4808750452    0.3593621430
     N    -0.3258784175    3.2571397473    0.6615759532
     C     0.1293994403    2.1936338024    0.8098012353
     H    -1.8314036591    4.6170188692    1.0292973389
     H     5.5870213273    1.7708185658   -0.0857789939
     H     5.8778564692    0.0236733238   -0.2719398042
     C     5.1683092469    0.8336512616   -0.4633402017
     N     3.9371229418    0.5601135655    0.1891818446
     C     2.8411635004    0.3477716525    0.5371529757
     H     4.9901757720    0.9193358258   -1.5393455549
     H     0.9700579909   -5.3022534532   -0.5474248044
     H    -0.6799108665   -4.7183106629   -0.9018825618
     C     0.3860819897   -4.4907066192   -0.9904210149
     N     0.6606119002   -3.2718606473   -0.3173535601
     C     0.7933648053   -2.2110279725    0.1487689425
     H     0.6483259984   -4.3865868609   -2.0469935342
    Cl    -1.8235326743   -0.4007231227    0.9264257196
     H    -0.3476765686   -0.0367878022    5.8884784139
     H    -1.5770179021   -0.9779645221    4.9946296712
     C    -0.5064292823   -0.8605934764    5.1868450191
     N     0.1555256795   -0.5838452569    3.9613556712
     C     0.5080226774   -0.3694863039    2.8672179969
     H    -0.1091678565   -1.7816208350    5.6227711520
    Cl     0.9007697217    0.3774856850   -1.7984510838
