31
-8.0695135980193254e+02 frame 82   xyz file generated by TeraChem
    Fe     0.0017267270    0.0006820202    0.0002941405
     C     0.5356972916    3.2723136151    0.4869667041
     N     0.3516109840    2.1405004226    0.3191058050
     C     0.7676567848    4.6949146687    0.6973198563
     H     0.3539346439    5.2682543461   -0.1387668587
     H     1.8428211797    4.8907287676    0.7653519129
     H     0.2861078576    5.0193065452    1.6256028780
     C     3.2541108690   -0.4726058145   -0.5673836678
     N     2.1336426794   -0.3181463996   -0.3193947112
     C     4.6624548508   -0.6661400836   -0.8813863455
     H     5.1899486882    0.2919540604   -0.8307251698
     H     4.7643380299   -1.0766641993   -1.8913328883
     H     5.1133171445   -1.3604803847   -0.1648569413
     C    -0.5369240384   -3.2701255072   -0.4855622079
     N    -0.3495509753   -2.1387699946   -0.3182663641
     C    -0.7728131155   -4.6920736595   -0.6961088932
     H     0.1462771822   -5.1749782916   -1.0438733821
     H    -1.5557467287   -4.8326608285   -1.4485713141
     H    -1.0908355946   -5.1610793191    0.2407647381
     C    -3.2519319674    0.4732062441    0.5613979718
     N    -2.1302021033    0.3197883555    0.3185382510
     C    -4.6622534884    0.6649951641    0.8675245346
     H    -5.0073617774   -0.1275140018    1.5396325690
     H    -5.2518568633    0.6347854779   -0.0545942048
     H    -4.8091601642    1.6345918966    1.3544174425
     O     0.2251893979   -0.3317038920    2.1168257734
     H     0.6393217735    0.3205221680    2.7043855399
     H     0.4161285920   -1.2106507106    2.4819139263
     O    -0.2194839235    0.3328308924   -2.1168984586
     H    -0.6334087160   -0.3188253981   -2.7051958815
     H    -0.4087342476    1.2120578466   -2.4821896172
