22
-5.2197188670137041e+02 frame 107   xyz file generated by TeraChem
    Fe     0.0956669099   -0.0028622641    0.0238970858
     N    -0.1998744071    2.1620217568    0.4312728237
     H    -1.2040040556    2.2989859354    0.5723427564
     H     0.2493666635    2.5252371144    1.2757009344
     H     0.0690641833    2.8085355565   -0.3144849575
     N     2.2666243056    0.4056241130   -0.2749731863
     H     2.6842340626    0.9652121530    0.4730450990
     H     2.8394240260   -0.4402090869   -0.3289209184
     H     2.4632304869    0.9174277926   -1.1389262236
     N     0.1596574375   -2.1806130537   -0.3823546663
     H     1.0407200521   -2.5692082876   -0.7285058681
     H    -0.0469554035   -2.6989539676    0.4752302849
     H    -0.5503849512   -2.4745182448   -1.0576545184
     O    -2.0809622826   -0.1273583581    0.3573448533
     H    -2.6686083442   -0.2519096336   -0.4081257780
     H    -2.5131480555   -0.5737746785    1.1058349883
     O     0.2751741181   -0.5824042104    2.1757173339
     H    -0.1311313606   -0.1053710091    2.9207141462
     H     1.0458312048   -1.0367227969    2.5597498522
     O    -0.5368431010    0.2125402130   -2.1268864669
     H    -0.0918395280   -0.2151110911   -2.8795606520
     H    -0.9709722366    0.9975494099   -2.5048152073
