55
-1.2781673510562493e+03 frame 58   xyz file generated by TeraChem
    Fe    -0.0446958707    0.0097488821    0.0171615041
     O     0.0246118448    2.2909072998    0.0118877616
     C    -1.0749948639    3.1494999135   -0.0632595649
     C    -0.6574362212    4.4330122161   -0.0046755921
     C     0.7775801201    4.4061667995    0.1150723362
     C     1.1542940624    3.1085847459    0.1211488451
     H    -2.0294279763    2.6595516649   -0.1581871265
     H    -1.2875199238    5.3110556632   -0.0420374578
     H     2.0946947644    2.5871912495    0.1874198763
     H     1.4367417325    5.2604785015    0.1856017470
     O     2.1507783449    0.0076393683    0.0171984124
     C     2.9909381948   -0.2703467244    1.1050987314
     C     4.2789752785   -0.1789364227    0.7129754046
     C     4.2782095849    0.1752521528   -0.6856464022
     C     2.9897336035    0.2780451505   -1.0736118919
     H     2.4800436050   -0.4991109490    2.0242006270
     H     5.1468076131   -0.3412991529    1.3375689084
     H     2.4778989588    0.5116289790   -1.9909806962
     H     5.1453930810    0.3300688021   -1.3130602182
     O     0.0181198724   -2.2710751730    0.0216505747
     C     1.1439788822   -3.0930220856   -0.0949888646
     C     0.7632090932   -4.3893055907   -0.0779987290
     C    -0.6705985542   -4.4108526572    0.0567264814
     C    -1.0834069184   -3.1257022420    0.1131025927
     H     2.0853170965   -2.5750049844   -0.1737994051
     H     1.4187873039   -5.2461723013   -0.1508556132
     H    -2.0351691264   -2.6318731379    0.2142952909
     H    -1.3030273936   -5.2866814354    0.1049368370
     O    -2.2015438852    0.0114436573    0.0154234182
     C    -3.0274790393   -0.2585632356   -1.1511893250
     C    -3.0269943787    0.2817096499    1.1823462683
     H    -2.3506289286    0.5021160576    2.0029010540
     H    -3.6327653499   -0.5999737675    1.4108403978
     H    -3.6778920576    1.1369987139    0.9794883500
     H    -2.3512396463   -0.4791595765   -1.9717441278
     H    -3.6329956989    0.6233188325   -1.3795144562
     H    -3.6784151247   -1.1137982030   -0.9482428344
     O    -0.0225565627    0.0130877370    2.2087916651
     C     0.1924694213    1.1902797079    3.0354165587
     C    -0.2275662902   -1.1610227473    3.0419616841
     H    -0.3301614005   -2.0149978610    2.3781034221
     H    -1.1318120883   -1.0282666743    3.6433077332
     H     0.6344418003   -1.2967196498    3.7026259166
     H     0.3079658313    2.0392487820    2.3677189222
     H     1.0945627497    1.0523602413    3.6386988107
     H    -0.6701236951    1.3378089147    3.6927081520
     O    -0.0250506140    0.0076274476   -2.1751011976
     C     0.1866772053   -1.1692285283   -3.0029888557
     C    -0.2302796402    1.1826904867   -3.0067352921
     H    -0.3269046847    2.0365860324   -2.3418824205
     H    -1.1376517064    1.0533128667   -3.6041079955
     H     0.6291397836    1.3159348304   -3.6712611750
     H     0.2960037106   -2.0196700792   -2.3361248366
     H     1.0911364731   -1.0346699769   -3.6034731224
     H    -0.6746703892   -1.3117220217   -3.6630468326
