25
-6.9424376970859737e+02 frame 44   xyz file generated by TeraChem
    Fe    -0.1441276805   -0.0255411095    0.0816926763
     O    -0.3023958403    2.0760173009    0.4730035458
     H    -0.5855624526    2.7525058740   -0.1649251306
     H    -0.6736356191    2.3187309146    1.3389239413
     O     1.9017335550    0.2242205179    0.6298715509
     H     2.5877043154   -0.3758282639    0.2888827698
     H     2.2666366653    1.1267315350    0.6076790724
     O     0.4110097115   -2.0993632009   -0.1957066744
     H     0.3447091934   -2.4902971921   -1.0835679404
     H     0.2618616143   -2.8220464867    0.4374982098
     C    -3.4042699254   -0.5032160857   -0.3865045054
     N    -2.2708227300   -0.3473172263   -0.1987440461
     C    -4.8269054150   -0.6985898969   -0.6204803213
     H    -5.0215200713   -0.7613728914   -1.6964885723
     H    -5.3909817683    0.1422468599   -0.2025340570
     H    -5.1592863300   -1.6260978835   -0.1418310668
     O    -0.4569842323   -0.1247595278    2.2511332840
     H    -1.1373388442   -0.6416037640    2.7145137299
     H     0.3501157761   -0.1707224621    2.7932582982
     C     0.3973513950    0.5098385535   -3.1749161156
     N     0.2114287810    0.2978189161   -2.0498308695
     C     0.6322785380    0.7743487326   -4.5871969406
     H    -0.2877275999    0.6037158188   -5.1562911913
     H     1.4149509483    0.1077466251   -4.9651700261
     H     0.9516513968    1.8129325212   -4.7243368505
