35
-8.0931763316453714e+02 frame 88   xyz file generated by TeraChem
    Fe     0.0227141711    0.0083236016    0.0092648821
     N    -0.2242445296    2.2078926438   -0.2506275540
     H    -1.1684034182    2.5646351480   -0.0866515921
     H     0.3888967747    2.8110477801    0.3034016185
     H    -0.0257189292    2.4209161468   -1.2322988270
     N     2.2069066872    0.4136396952    0.2444755151
     H     2.5992954263    1.1562452620   -0.3395320477
     H     2.3723100947    0.6958288478    1.2147525997
     H     2.8174874851   -0.3930613561    0.0963136367
     N     0.2573340406   -2.1900769051   -0.2493153676
     H     1.2208495134   -2.5306829328   -0.2139742393
     H    -0.2635129842   -2.7861438650    0.3989485384
     H    -0.0720479509   -2.4288499920   -1.1888641089
     N    -2.1666681970   -0.3821441191    0.2379924418
     H    -2.5437376639   -1.1794318658   -0.2803561082
     H    -2.3485287208   -0.5759603242    1.2271486270
     H    -2.7807439778    0.4006435594    0.0018797610
     O     0.0174572029   -0.0091644113    2.3350050763
     C    -0.7874468657    0.7744213123    3.1652303142
     C    -0.7359548884    0.3066030622    4.4324408077
     C     0.1430773259   -0.8339169654    4.4257093773
     C     0.5755250308   -0.9915426174    3.1552568935
     H    -1.2731266260    1.6150517857    2.6945253498
     H    -1.2506786373    0.7219440290    5.2881135865
     H     1.2416831739   -1.6879360558    2.6702323657
     H     0.4145821626   -1.4470952598    5.2740969054
     O     0.0565436576    0.0078239269   -2.3419726987
     C    -0.9333655146    0.4759143094   -3.2092717622
     C    -0.4739286243    0.4751299353   -4.4801665804
     C     0.8790995025   -0.0159493199   -4.4383357630
     C     1.1609119972   -0.2859544723   -3.1447516635
     H    -1.8780297611    0.7257080447   -2.7520440963
     H    -1.0256475565    0.7794088713   -5.3591043740
     H     2.0292369290   -0.6653163905   -2.6295765065
     H     1.5461626571   -0.1491934697   -5.2790299383
