22
-6.3785224471262063e+02 frame 50   xyz file generated by TeraChem
    Fe    -0.0975911956   -0.1155883062   -0.0270699954
     O    -0.4824348964    1.9445821612    0.3604279895
     H    -0.4727138680    2.7467339671   -0.1879867298
     H    -0.6043587245    2.2098286917    1.2881420765
     O     1.9641382956    0.1340969481    0.5137532883
     H     2.6315996042   -0.5327017246    0.2751500225
     H     2.4130905146    0.9976049295    0.5177319581
     O     0.3302567238   -2.2225822218   -0.1580810493
     H     0.4728333714   -2.7223936109   -0.9804905105
     H     0.2139291220   -2.8818962343    0.5480440255
     O    -2.2156142173   -0.4562134429   -0.1523671269
     H    -2.6260581931   -1.2070872903   -0.6156407737
     H    -2.8062522098    0.3077630402   -0.2769815278
     O    -0.4500496453   -0.2042612661    2.1493854045
     H    -1.2702441308   -0.5610161045    2.5309310862
     H     0.2629709973   -0.3710859176    2.7893493090
     H     0.3126520053    1.5981917340   -4.9683731451
     H     1.6271825845    0.3826454500   -4.9658132130
     C     0.5766181679    0.5657436958   -4.7267537212
     N     0.3753927901    0.3491795168   -3.3236580803
     C     0.2113572137    0.1757025675   -2.1872234292
     H    -0.0598336876   -0.1242887562   -5.2861846115
