19
-2.5192436379109113e+03 frame 72   xyz file generated by TeraChem
    Fe     0.0001467882   -0.0015609736    0.0127939035
     S    -0.4605608093    2.5722583413    0.4596387041
     H     0.3683910662    3.2987641034   -0.3193616749
     H     0.1561080491    2.8902341411    1.6184682937
     S     2.6112211908    0.3315057043    0.4939537294
     H     3.2137301539   -0.7238930481   -0.0960219688
     H     3.0816414780    1.2354020977   -0.3914333485
     S     0.4598397341   -2.5757896569   -0.4344641165
     H    -0.1593616229   -2.8905590509   -1.5928169173
     H    -0.3703669823   -3.3008461634    0.3445635998
     S    -2.6086574958   -0.3450657536   -0.4703328464
     H    -3.0862304700   -1.2141685150    0.4455929707
     H    -3.2104950001    0.7329560378    0.0780949086
     S    -0.1693339129   -0.2741498898    2.6772152246
     H    -1.2539848132   -1.0120017035    2.9930134265
     H     0.7241604324   -1.2058852893    3.0722784801
     S     0.1713001698    0.2704250692   -2.6518445084
     H     1.2542733195    1.0122140161   -2.9641874134
     H    -0.7240319458    1.1989691378   -3.0503177204
