29
-6.1483878666128737e+02 frame 47   xyz file generated by TeraChem
    Fe    -0.0000783871   -0.0002522045   -0.0062023923
     N    -0.2381492762    2.1986235214    0.3755325624
     H    -1.2179058348    2.4274178596    0.5547992723
     H     0.2754027427    2.5434613323    1.1893211228
     H     0.0347894019    2.7892001127   -0.4128011941
     N     2.2124688867    0.3142229833   -0.3051422830
     H     2.4745651588    1.3018499603   -0.3107113800
     H     2.7822775382   -0.1159922887    0.4260293388
     H     2.5506020349   -0.0563961022   -1.1954603915
     N     0.2388437183   -2.2000180358   -0.3850403319
     H     1.2194942701   -2.4294465520   -0.5584287076
     H    -0.0385978624   -2.7893514084    0.4026677768
     H    -0.2702813632   -2.5460024946   -1.2011250509
     N    -2.2130768277   -0.3159636971    0.2853924778
     H    -2.4814533768   -1.3013798139    0.2513601869
     H    -2.5453358272    0.0200917591    1.1914816622
     H    -2.7831426028    0.1467112581   -0.4254993209
     C     0.5142433576   -0.5174198089    3.3098826993
     N     0.3404461186   -0.3437945130    2.1758061446
     C     0.7323025307   -0.7349708692    4.7341508558
     H     0.7150123083    0.2227408290    5.2649054843
     H     1.7029021655   -1.2154825109    4.8956513767
     H    -0.0560498299   -1.3792561102    5.1375934513
     C    -0.5140346573    0.5185194570   -3.3223660047
     N    -0.3395582810    0.3436033687   -2.1886074359
     C    -0.7325974030    0.7377250767   -4.7463239442
     H    -0.7157020754   -0.2193869789   -5.2781708150
     H     0.0557399973    1.3823076601   -5.1493197546
     H    -1.7031404593    1.2186363378   -4.9069539486
