16
-2.9054344211908242e+03 frame 87   xyz file generated by TeraChem
    Fe    -0.5530149185   -0.1978180983   -0.0459288271
     C    -1.0480061967    1.8182531065    0.2096328815
     S    -1.7813539426    3.1617653740    0.3287735098
     C     1.5012209910    0.0894010895    0.2977117015
     S     2.9882488808    0.3692544235    0.5386457837
     C    -0.3377255497   -2.2301139635   -0.3688982537
     S    -0.1200916623   -3.7390511371   -0.6072238437
     S    -3.0720621006   -0.5951759687   -0.4817906347
     C    -3.9954297911    0.8059320765   -0.3926703507
     N    -4.6441942461    1.7829492761   -0.3319367062
     S    -0.9073516986   -0.6535518117    2.4683467957
     C     0.5908734650   -0.6288338439    3.2422818728
     N     1.6230648221   -0.6159802072    3.8001680849
     S    -0.1340374761    0.1445703639   -2.5796222504
     C     1.5257631346    0.2184396938   -2.8646598691
     N     2.6773815426    0.2700304335   -3.0839488397
