40
-1.2078373090079156e+03 frame 30   xyz file generated by TeraChem
    Fe    -0.2905866317   -0.0021652263    0.0047279125
     C    -0.1477777845    2.3566367003    0.3747211580
     O    -0.0733297484    3.4651306702    0.5763032017
     C     2.2077006711   -0.0068572637    0.0054921993
     O     3.3374723044   -0.0088894493    0.0043275114
     C    -0.1544689450   -2.3615303046   -0.3602473880
     O    -0.0841346223   -3.4708662150   -0.5586337906
     C    -5.2479032082    0.0035657100   -0.0076260024
     C    -4.5343658535    0.9680497125   -0.7220226549
     C    -3.1454935825    0.9321754309   -0.6928706989
     N    -2.4513567539    0.0005801395   -0.0006051229
     C    -3.1509634676   -0.9294748350    0.6882227668
     C    -4.5400456528   -0.9623911069    0.7104107474
     H    -6.3336389257    0.0047364052   -0.0103745264
     H    -5.0421324894    1.7383329772   -1.2927221209
     H    -2.5609252235    1.6627161151   -1.2440570177
     H    -2.5707260519   -1.6610950211    1.2425824452
     H    -5.0523056521   -1.7315170552    1.2786507330
     C     0.1881049801   -0.5815623744    4.9111141568
     C     0.9786583297   -1.3431082869    4.0479844918
     C     0.8280624162   -1.1748236554    2.6776038707
     N    -0.0566999286   -0.3048412780    2.1369025091
     C    -0.8260122594    0.4214832879    2.9826630057
     C    -0.7317197149    0.3154232536    4.3643698324
     H     0.2859029306   -0.6863754695    5.9873240008
     H     1.7035073316   -2.0563097985    4.4258072399
     H     1.4321529690   -1.7542471126    1.9859110078
     H    -1.5420406572    1.0994639042    2.5281227202
     H    -1.3692026590    0.9256332658    4.9953269764
     C     0.2025044960    0.5823053243   -4.8997442390
     C     0.9875856707    1.3455358551   -4.0331342439
     C     0.8327766105    1.1752753795   -2.6634719432
     N    -0.0510350811    0.3018975059   -2.1266611118
     C    -0.8150148706   -0.4260124801   -2.9758664250
     C    -0.7162576728   -0.3182919978   -4.3571406617
     H     0.3036731315    0.6885384663   -5.9755013899
     H     1.7114168578    2.0614890682   -4.4076963795
     H     1.4328628729    1.7556341605   -1.9690787562
     H    -1.5305687703   -1.1067214269   -2.5246707436
     H    -1.3495245045   -0.9299438918   -4.9909424834
