31
-8.0681880443322711e+02 frame 57   xyz file generated by TeraChem
    Fe     0.0962372854   -0.0014801157   -0.0353546421
     H     0.0312026703    5.2144548800    0.9275837414
     H    -1.1964291123    5.1283948018   -0.3703360188
     C    -0.8573971402    4.6883504260    0.5705338145
     N    -0.5308219055    3.3119689610    0.3540683881
     C    -0.2758327200    2.1905008264    0.1868090412
     H    -1.6526626505    4.7521705475    1.3170860486
     H     5.0557910163    0.7263516106    1.6951152764
     H     5.4119520056   -0.1226423401    0.1609881540
     C     4.8562936416    0.6979221544    0.6211918870
     N     3.4560044553    0.4879535239    0.4129070768
     C     2.3196290181    0.3179939619    0.2455398581
     H     5.1461914168    1.6466900064    0.1632721374
     H     1.1363857412   -5.1597284707    0.2359331102
     H    -0.0956463341   -5.2023168803   -1.0603476837
     C     0.8307083920   -4.7318936510   -0.7217977123
     N     0.6077555293   -3.3272113900   -0.5565845061
     C     0.4266332472   -2.1875555601   -0.4155794505
     H     1.6165847057   -4.8841140087   -1.4654719537
     O    -2.0247003731   -0.1831207353   -0.4385432444
     H    -2.2132936598   -0.2624921836   -1.3897909162
     H    -2.6310600958   -0.7816853695    0.0288264373
     H    -0.2032772747    0.1844481177    5.2151143509
     H    -1.6873712498   -0.7551918811    4.8841185145
     C    -0.6161525976   -0.6759954502    4.6830882600
     N    -0.4176584443   -0.4952959804    3.2774503333
     C    -0.2569825058   -0.3436728211    2.1364243203
     H    -0.1098420858   -1.5899266368    5.0024349920
     O     0.1407494325    0.2905973772   -2.2418216306
     H     0.6348805786   -0.3127807024   -2.8220017272
     H     0.2494035347    1.1812811991   -2.6170445217
