59
-1.8558739934710293e+03 frame 77   xyz file generated by TeraChem
    Fe    -0.0619549789    0.0057967926    0.1048518211
     C     0.1946059705    5.1039969283   -0.5688611331
     C     1.3205337459    4.4042711028   -0.1340154317
     C     1.1960571714    3.0475753572    0.1488698857
     N     0.0363515710    2.3707358031    0.0311985234
     C    -1.0430781984    3.0562929231   -0.3934074798
     C    -1.0093339311    4.4140487867   -0.7000425043
     H     0.2560116108    6.1622751912   -0.8044697897
     H     2.2819615592    4.8946679476   -0.0209449263
     H     2.0494962189    2.4659667600    0.4804584398
     H    -1.9543806667    2.4802463756   -0.4996278249
     H    -1.9110160185    4.9110184062   -1.0422686523
     C     5.0940360298   -0.2652171479   -0.4812221492
     C     4.5323451411   -0.6099717582    0.7477482761
     C     3.1543471221   -0.4982957013    0.9112707240
     N     2.3255140026   -0.0708513315   -0.0610141178
     C     2.8795208626    0.2587009624   -1.2472996342
     C     4.2476031394    0.1776359768   -1.4963207878
     H     6.1650665488   -0.3421275612   -0.6436947902
     H     5.1458145052   -0.9620329654    1.5707583052
     H     2.6945247173   -0.7591743877    1.8576444396
     H     2.1860678061    0.5805650997   -2.0169249056
     H     4.6313611807    0.4549084820   -2.4726659041
     C    -0.4180630425   -4.9601572244   -0.6271273938
     C    -1.3425915768   -4.3096638943    0.1899549036
     C    -1.1649882898   -2.9562454097    0.4531595941
     N    -0.1347174850   -2.2391780538   -0.0386103016
     C     0.7492573115   -2.8761860008   -0.8295885729
     C     0.6480566972   -4.2273429874   -1.1438873194
     H    -0.5322000781   -6.0138801823   -0.8628853409
     H    -2.1942071801   -4.8347314560    0.6097690839
     H    -1.8669516775   -2.4101997608    1.0747268334
     H     1.5528693201   -2.2694490288   -1.2301100107
     H     1.3844933322   -4.6848566835   -1.7957447061
     C    -5.1340177267    0.4292413681    0.9756258942
     C    -4.6369214994   -0.2655677143   -0.1253812719
     C    -3.2579885618   -0.3893285360   -0.2812774730
     N    -2.3714862018    0.1324225470    0.5927916622
     C    -2.8641394892    0.8010752175    1.6533122544
     C    -4.2258264986    0.9733217756    1.8838604812
     H    -6.2036863727    0.5453806338    1.1232654040
     H    -5.2986562891   -0.7067883940   -0.8633299227
     H    -2.8488650249   -0.9244521273   -1.1311238291
     H    -2.1352244415    1.2181101997    2.3395106950
     H    -4.5602015587    1.5247003777    2.7566857137
     C     0.6569687416    0.0089194270    5.1532346965
     C     0.6121465443    1.2064245115    4.4397258862
     C     0.4278121970    1.1589388329    3.0608054595
     N     0.2906197426    0.0070680853    2.3751099539
     C     0.3366696074   -1.1442374313    3.0738511572
     C     0.5161946538   -1.1892991328    4.4537356585
     H     0.7983373514    0.0094339285    6.2299036605
     H     0.7153091733    2.1651413347    4.9372500065
     H     0.3792440223    2.0634111171    2.4665652707
     H     0.2274753116   -2.0514210900    2.4919165759
     H     0.5430854606   -2.1472521745    4.9625428063
     S    -0.4502103593    0.3771389203   -2.3414643908
     C    -1.0967639587   -1.0920931622   -2.8616535454
     N    -1.5806532976   -2.1086953047   -3.1862314786
