21
-2.1334249207424377e+03 frame 10   xyz file generated by TeraChem
    Fe    -0.0000367345    0.0000934881    0.0103260565
     C     0.0102431524    2.2749911720    0.0077345506
     S     0.0577903742    3.7922338023    0.0053926864
     C     2.2686025049    0.0075481492    0.0129591490
     S     3.7860592008    0.0542207342    0.0157601663
     C    -0.0092464215   -2.2747193205    0.0151923629
     S    -0.0560131643   -3.7919769935    0.0194091198
     C    -2.2685654328   -0.0062830876    0.0099333311
     S    -3.7860420916   -0.0521703045    0.0090590858
     C     0.0026846156    0.0034897909    3.3774933412
     N    -0.0003940955    0.0026050494    2.2185499394
     C     0.0078318959    0.0035150003    4.8337646462
     H    -1.0194174387   -0.0330078730    5.2111340054
     H     0.4940820575    0.9110999421    5.2061528177
     H     0.5539475021   -0.8709740634    5.2030110879
     C    -0.0030020392   -0.0038883424   -3.3557394952
     N     0.0002447111   -0.0027120554   -2.1967959184
     C    -0.0083674793   -0.0043022815   -4.8119958667
     H     1.0188285159    0.0321207809   -5.1895236095
     H    -0.5545360580    0.8700996692   -5.1813767302
     H    -0.4946886707   -0.9119832014   -5.1840600989
