49
-1.3085647046185286e+03 frame 52   xyz file generated by TeraChem
    Fe    -0.0457129323    0.0198116981   -0.0831086022
     O    -0.0206927194    2.2446940967   -0.0732458814
     C    -1.0944911485    3.1124344055    0.1549241795
     C    -0.7120395143    4.3813020603   -0.1007865270
     C     0.6683013729    4.3359016694   -0.5145537121
     C     1.0526070820    3.0422566269   -0.4887031112
     H    -2.0045879667    2.6462432043    0.4944493630
     H    -1.3301126598    5.2633620156   -0.0053138310
     H     1.9669525446    2.5117399416   -0.6964271768
     H     1.2890366655    5.1776843234   -0.7890456792
     O     2.1974795887    0.0161473410    0.0383589481
     C     2.9698005762    0.2312250660    1.1869615920
     C     4.2618871100   -0.0613921418    0.9249815697
     C     4.3330229246   -0.4894971686   -0.4492391135
     C     3.0799743563   -0.4348273055   -0.9484118525
     H     2.4308711850    0.5863474345    2.0490439843
     H     5.0848764968    0.0173200287    1.6220132912
     H     2.6359015305   -0.6590860182   -1.9040279310
     H     5.2193032009   -0.7976062062   -0.9865180842
     O     0.1157837096   -2.1816553713   -0.0521836759
     C     1.1485144525   -2.9397548714    0.5112253817
     C     1.0138377028   -4.2297232245    0.1369310191
     C    -0.1491818578   -4.3108665168   -0.7111976371
     C    -0.6627596613   -3.0662381681   -0.8066167244
     H     1.8498938803   -2.3933970815    1.1211558881
     H     1.6623256656   -5.0457108622    0.4246165126
     H    -1.5117983434   -2.6310849036   -1.3078346259
     H    -0.5440068128   -5.1997887714   -1.1836135798
     H    -5.0891972181    0.0410552738    1.3300768260
     H    -5.2984818664    0.0564364767   -0.4488761534
     C    -4.7900526911   -0.4266001533    0.3890252681
     N    -3.3750470497   -0.2788416942    0.2242086134
     C    -2.2262308271   -0.1633498304    0.1015477602
     H    -5.0339412572   -1.4916635327    0.4088600501
     O    -0.0648987125    0.0740281994    2.2039505895
     C    -0.4776691672   -0.9520136169    3.0543332251
     C    -0.5774142772   -0.4847721315    4.3182697683
     C    -0.2199841560    0.9096371176    4.2838085115
     C     0.0786803488    1.2130341947    3.0009261305
     H    -0.6178293764   -1.9128280748    2.5860698265
     H    -0.8650708774   -1.0585002028    5.1883889222
     H     0.3789348874    2.1069174231    2.4790031908
     H    -0.1917767437    1.5922358357    5.1219464639
     H     0.2683733094   -0.6097772731   -5.2902940125
     H    -1.0751118256    0.5667235089   -5.1691843529
     C    -0.0542097076    0.3386103640   -4.8537271746
     N    -0.0217798662    0.2278047111   -3.4265922277
     C     0.0068230235    0.1436607091   -2.2692621651
     H     0.6197977599    1.1413314035   -5.1624460328
