43
-1.5418909329725434e+03 frame 46   xyz file generated by TeraChem
    Fe     0.1183873486   -0.0428893244    0.1439575187
     O     0.0762673747    2.1319829478    0.1210091386
     C     1.1396016712    2.9232446813   -0.4794437078
     C    -1.0608097228    2.9637108771    0.4659002873
     H    -1.7897204378    2.3292945854    0.9666185092
     H    -1.4928023370    3.3994705367   -0.4404584417
     H    -0.7369773280    3.7612777639    1.1405361592
     H     1.9843946218    2.2552969514   -0.6246815591
     H     1.4112987354    3.7335133513    0.2033494529
     H     0.8043667173    3.3364775574   -1.4349458050
     O     2.2953675932   -0.0475687431    0.0579400976
     C     3.0711565298   -0.3272336932   -1.1335206215
     C     3.1588759253    0.2176456175    1.1928711872
     H     2.5208458415    0.2524377417    2.0720465145
     H     3.6815170788    1.1688854749    1.0521060604
     H     3.8881107836   -0.5920242949    1.2915494242
     H     2.3741458881   -0.5951008300   -1.9262531681
     H     3.7504571894   -1.1626044154   -0.9403116396
     H     3.6457053700    0.5574490093   -1.4246319876
     O     0.1958056148   -2.1800597531    0.0664229002
     C    -0.5226764028   -3.0122867517   -0.8825934860
     C     1.2759242687   -2.9236940818    0.6913714815
     H     1.7372596290   -2.2740067764    1.4310340913
     H     2.0088181307   -3.2211524638   -0.0642431417
     H     0.8618679978   -3.8118768695    1.1767928390
     H    -1.3216858540   -2.4120989996   -1.3135494811
     H    -0.9536245162   -3.8688360509   -0.3573271486
     H     0.1648165051   -3.3561385844   -1.6615818906
     S    -2.5916250419   -0.4885517006    0.3882617141
     H    -3.3282365984    0.3508199032   -0.3685898541
     H    -3.0134946527    0.0363590569    1.5564712580
     O     0.0926122635   -0.0153940522    2.3805765999
     C    -0.5023335492   -1.0777971756    3.1632902150
     C     0.3608389170    1.1453049438    3.2055123762
     H     0.7378638966    1.9262840184    2.5482306298
     H     1.1022005838    0.8936194342    3.9702549188
     H    -0.5635662504    1.4780300588    3.6895056495
     H    -0.6723739751   -1.9202479344    2.4940354066
     H    -1.4482179800   -0.7398749521    3.6000668117
     H     0.1806921490   -1.3725418047    3.9663926832
     S    -0.1820950648    0.4291039253   -2.5320233563
     H    -0.3834711271   -0.7044471992   -3.2361880359
     H    -1.4553074578    0.8536617755   -2.6677590346
