45
-8.5628312404665121e+02 frame 83   xyz file generated by TeraChem
    Fe     0.0437146482    0.0363134532    0.0056299391
     O     0.0373571918    2.2673628049   -0.1402857065
     C     0.9664061370    3.0025155354   -0.9668426640
     C    -0.9674677694    3.1418262890    0.4207077823
     H    -1.6756296772    2.5171313584    0.9648472450
     H    -1.4910951925    3.6797979539   -0.3762003154
     H    -0.4968212529    3.8627483799    1.0975046310
     H     1.7450451621    2.3059625817   -1.2783533943
     H     1.4188815919    3.8164234231   -0.3909649064
     H     0.4525561953    3.4190691567   -1.8401641181
     O     2.2704694791    0.0325701154    0.1515726644
     C     3.1488584712   -0.9655240041   -0.4155135117
     C     3.0035690744    0.9650320760    0.9764667130
     H     2.3041600183    1.7404506962    1.2894115997
     H     3.8141339894    1.4209549054    0.3986215582
     H     3.4244106638    0.4527711982    1.8486170623
     H     2.5262068889   -1.6774088980   -0.9571373725
     H     3.6945618018   -1.4862607765    0.3779904718
     H     3.8628139688   -0.4888683016   -1.0954444000
     O     0.0206192079   -2.2465458289    0.0949531817
     C    -0.8859340298   -3.0933329956   -0.6448513203
     C     0.7678808693   -3.0079229353    1.0672861986
     H     1.4828947880   -2.3281563614    1.5315314381
     H     1.3082352349   -3.8228289518    0.5746545019
     H     0.0917323571   -3.4237232021    1.8225094523
     H    -1.4866189656   -2.4460616895   -1.2845851232
     H    -1.5427767222   -3.6390310356    0.0402731497
     H    -0.3190105924   -3.8084239353   -1.2509941941
     O    -2.2460949941    0.0139251584   -0.0811913388
     C    -3.0064908737    0.7579222379   -1.0565675746
     C    -3.0935979979   -0.8891781093    0.6616963438
     H    -2.4467199077   -1.4893282880    1.3024638637
     H    -3.6408681179   -1.5472416865   -0.0210422604
     H    -3.8074432963   -0.3199238080    1.2671688251
     H    -2.3253856846    1.4691177270   -1.5248155149
     H    -3.8198456844    1.3027462852   -0.5662354193
     H    -3.4243046207    0.0791535718   -1.8083460229
     N    -0.1976730169    0.2470507782    2.1665657888
     H    -1.1914073385    0.3187098821    2.3936707534
     H     0.1756873936   -0.5112033983    2.7411598252
     H     0.2317853974    1.1061748066    2.5159975687
     N     0.2553816762   -0.2015678217   -2.1554697884
     H    -0.5058631909    0.1684945818   -2.7282793946
     H     1.1118609695    0.2300483499   -2.5087565761
     H     0.3293208506   -1.1954338728   -2.3814140050
