23
-8.0883847816634307e+02 frame 120   xyz file generated by TeraChem
    Fe    -0.0803784140    0.0753088410    0.1145839387
     C     0.9059333776    3.0467686822    0.4532787318
     O     0.0310454307    2.1866842762    0.4159735821
     H     1.9634189154    2.7930305234    0.2935193745
     H     0.6389448839    4.0940382034    0.6472334396
     C     2.8015858982   -0.9313972534   -0.5465709709
     O     2.0027977141   -0.0613150425   -0.2076415407
     H     2.4700717383   -1.9562347912   -0.7644828610
     H     3.8686743738   -0.6889925723   -0.6354852645
     C    -1.1103993362   -2.8608279607   -0.2752489867
     O    -0.2081368534   -2.0279984523   -0.2451435551
     H    -2.1549896976   -2.5771901006   -0.0850310809
     H    -0.8803285606   -3.9117376607   -0.4953284123
     C    -2.9641648987    1.0924861927    0.6600440410
     O    -2.1725965131    0.2072501096    0.3444111291
     H    -2.6228646412    2.1182364604    0.8545384017
     H    -4.0337467877    0.8621979142    0.7488098879
     C     0.6265179030   -0.6424463791    3.1928522722
     O     0.1191861904   -0.1735420171    2.1816743604
     H     1.4709206217   -1.3458670736    3.1414680300
     H     0.2419924164   -0.3648507228    4.1839210700
     C    -0.4117155423    0.4534111348   -2.1904163817
     O    -0.5896391809    0.6470478060   -3.2868957189
