27
-5.3858987156942351e+02 frame 59   xyz file generated by TeraChem
    Fe    -0.0879204247   -0.1027652126    0.0253338769
     N    -0.4074838833    2.1405134748    0.3105216678
     H    -1.3959160296    2.3980244004    0.3531953551
     H     0.0058493469    2.5315795849    1.1600658936
     H    -0.0223474882    2.6859463861   -0.4636383512
     N     2.1500554789    0.1557887936    0.3635945600
     H     2.3797673665    1.1458146383    0.4753890266
     H     2.5722911982   -0.3115101334    1.1694864543
     H     2.6939328933   -0.1503088300   -0.4464334247
     N     0.3108027629   -2.3301157636   -0.2420535057
     H     1.1220123044   -2.6925876660    0.2643308396
     H    -0.4651245513   -2.9406571238    0.0241659877
     H     0.4907567898   -2.5371678156   -1.2270939907
     N    -2.3077997916   -0.3442405063   -0.4063353281
     H    -2.5187593056   -1.3076555070   -0.6765590944
     H    -2.9558912229   -0.1359343698    0.3566810153
     H    -2.6177723205    0.2243520551   -1.1978332628
     N    -0.4541901570   -0.3960978973    2.2637444825
     H    -1.2712866961    0.0999026214    2.6273306504
     H    -0.6090249343   -1.3763072717    2.5090137792
     H     0.3230411979   -0.0922804544    2.8544052623
     H     0.4625668053    1.6800298306   -4.9927389572
     H     1.6369983469    0.3318590895   -5.0297332497
     C     0.6164574502    0.6217737028   -4.7679517918
     N     0.4154952811    0.4081651787   -3.3640082214
     C     0.2505974052    0.2354119163   -2.2251745662
     H    -0.0987569518    0.0139872629   -5.3273394207
