43
-9.6417466563062703e+02 frame 61   xyz file generated by TeraChem
    Fe    -0.0007236019    0.0002969062    0.0285013388
     C     0.5046011938    3.2768626211   -0.3174891798
     N     0.3354181201    2.1432119260   -0.1527348509
     C     0.7190724336    4.7026433887   -0.5226217565
     H     0.4569186528    4.9752058057   -1.5500535119
     H     1.7708121026    4.9500136715   -0.3452677924
     H     0.0957281439    5.2768654879    0.1705204219
     C     3.2851464746   -0.5705827649    0.3667219186
     N     2.1593410822   -0.3608712880    0.1913446994
     C     4.7022328523   -0.8318638498    0.5811832583
     H     5.2597110856    0.1104696255    0.5741035802
     H     5.0869128994   -1.4786048093   -0.2141397784
     H     4.8496589206   -1.3268569147    1.5464780213
     C    -0.5031867309   -3.2770465142   -0.3138819992
     N    -0.3364617084   -2.1429731699   -0.1495357662
     C    -0.7132337222   -4.7035115348   -0.5187188680
     H     0.2481421394   -5.2270914178   -0.5002832542
     H    -1.1953381665   -4.8747121132   -1.4866463773
     H    -1.3521626809   -5.1041327963    0.2750565378
     C    -3.2872768776    0.5687359031    0.3640814407
     N    -2.1609958175    0.3605729557    0.1899442616
     C    -4.7046858455    0.8292842941    0.5772762553
     H    -5.1304919187    0.0643163310    1.2347298592
     H    -5.2357806878    0.8121150585   -0.3799871745
     H    -4.8369632597    1.8118923317    1.0416847092
     O    -0.0011118015    0.0011334936    2.2287789372
     C     0.8578554947    0.8268557419    3.0326276849
     C    -0.8621586378   -0.8224883535    3.0324377829
     H    -1.4673581849   -1.4196871193    2.3511590729
     H    -1.5085300169   -0.1974339298    3.6587248752
     H    -0.2620641100   -1.4816595053    3.6695897313
     H     1.4643590969    1.4229697485    2.3516333126
     H     1.5031001766    0.2033618633    3.6616187877
     H     0.2560864764    1.4869297285    3.6672532955
     O    -0.0001205553   -0.0007954527   -2.2142422161
     C     1.1659602738   -0.2192289270   -3.0272348339
     C    -1.1658617617    0.2180603532   -3.0274293701
     H    -2.0085274997    0.3564109647   -2.3525984721
     H    -1.3437375879   -0.6489688826   -3.6736400693
     H    -1.0290998820    1.1126710667   -3.6452750929
     H     2.0084773980   -0.3573464643   -2.3522149313
     H     1.3438424522    0.6480250337   -3.6731240614
     H     1.0294865243   -1.1137873542   -3.6452046940
