27
-1.0361953685348180e+03 frame 47   xyz file generated by TeraChem
    Fe    -0.2048697146    0.1011850994   -0.1000262136
     C     0.2329930845    2.3866802651   -0.3407989156
     O     0.4173191089    3.4927346561   -0.4474843217
     C     2.1791830540   -0.2782798179   -0.2189391489
     O     3.2897475431   -0.4450138555   -0.3014434803
     C    -0.5829401395   -2.1471961929    0.1910898534
     O    -0.7768906131   -3.2441426790    0.3586431910
     O    -2.2640405382    0.4690497125   -0.0156252673
     C    -2.9845036275    0.7393778932    1.1639719465
     C    -4.1873566334    0.1274662750    1.1045440069
     C    -4.2606598614   -0.5694314300   -0.1551446765
     C    -3.1015126399   -0.3509386556   -0.8112292173
     H    -2.5144833654    1.4168559238    1.8596539609
     H    -4.9621188205    0.1811262980    1.8581929927
     H    -2.7130545724   -0.5892552714   -1.7889417255
     H    -5.1014354991   -1.1395121886   -0.5282488252
     C     0.1624112796    0.3578339216    2.1931303615
     O     0.3496140622    0.4639231188    3.2990573780
     O    -0.1576698834   -0.0276689762   -2.2475488218
     C    -0.5965759416    0.9209991111   -3.1933873560
     C    -0.2906763641    0.4916437455   -4.4342306779
     C     0.3718324925   -0.7838645084   -4.3024018168
     C     0.4342271128   -1.0714441413   -2.9875932217
     H    -1.1064389282    1.7843527620   -2.7954154334
     H    -0.5110877668    1.0117248795   -5.3569610815
     H     0.8253793356   -1.8976419900   -2.4148441017
     H     0.7479671464   -1.4015739565   -5.1069521425
