27
-2.3279107462086008e+03 frame 73   xyz file generated by TeraChem
    Fe    -0.0011845227   -0.0001127579    0.0118855598
     C    -0.3324078876    2.2230928148    0.2849325865
     S    -0.5010266668    3.7173911592    0.4807006471
     C     2.2187759902    0.4115524070    0.1392657041
     S     3.6957198450    0.7446580036    0.2269456390
     C     0.3309265961   -2.2234598914   -0.2605168292
     S     0.5001420349   -3.7178073819   -0.4554529290
     C    -2.2206233509   -0.4120942432   -0.1142442810
     S    -3.6975001200   -0.7458245204   -0.2003980763
     O    -0.0378361092   -0.2227297881    2.2355386093
     C    -1.0239153302    0.2355029943    3.1105086197
     C    -0.7913667625   -0.2412088938    4.3525466980
     C     0.3996913610   -1.0486590474    4.2794203100
     C     0.8219631080   -1.0160732979    2.9970658114
     H    -1.7745342314    0.8756628495    2.6761979033
     H    -1.3881300956   -0.0462555005    5.2329745629
     H     1.6563471139   -1.4455374157    2.4665950826
     H     0.8731631653   -1.5788859521    5.0942535428
     O     0.0375934860    0.2215987961   -2.2110890833
     C    -0.8215061281    1.0147439421   -2.9735360203
     C    -0.3978145477    1.0475320360   -4.2554107265
     C     0.7935456646    0.2404052712   -4.3272871554
     C     1.0248533680   -0.2363701271   -3.0850631095
     H    -1.6566678653    1.4439850930   -2.4440846722
     H    -0.8705362839    1.5776670957   -5.0707368844
     H     1.7752164234   -0.8761938025   -2.6498405461
     H     1.3913012562    0.0456205632   -5.2070828762
