10
-1.7825561194599322e+03 frame 24   xyz file generated by TeraChem
    Fe     0.0835379786    0.0821277444   -0.0977846351
    Cl    -0.1498867336    2.5803630872   -0.5409399248
    Cl     2.5808947424   -0.1572190804   -0.5405851999
     C     0.0214771735   -2.1065264788    0.2322118489
     N    -0.0243216694   -3.2678298683    0.4004479401
     C    -2.1055536285    0.0271494742    0.2314740424
     N    -3.2670468200   -0.0148644880    0.3993779896
    Cl     0.4576827388    0.4559197235    2.3689745506
     C    -0.2712920641   -0.2725637070   -2.2443556446
     N    -0.4741956756   -0.4752670860   -3.3831018311
