45
-1.2565470050647530e+03 frame 62   xyz file generated by TeraChem
    Fe     0.2436023121   -0.0875159659    0.2650336943
     C     0.2301772988    4.0778131934   -0.7920541882
     C     0.6229314362    2.7768231529   -0.9293572182
     N    -0.0475799474    1.9947384903    0.0043384579
     C    -0.8399370675    2.8314096519    0.6929549284
     N    -0.6893761260    4.0850433207    0.2366820819
     H    -1.1675301704    4.9064726684    0.5960038195
     H     0.5173960557    4.9761822092   -1.3188275891
     H     1.3349423292    2.3627225065   -1.6242554561
     H    -1.4903992718    2.5651130628    1.5122906573
     C     4.3998848961    0.2644148363   -0.4900540196
     C     3.1051558723    0.1203032044   -0.8975779865
     N     2.2837443793    0.0749927528    0.2266037828
     C     3.0899177702    0.1939625579    1.2968947986
     N     4.3596510660    0.3086521328    0.8917895819
     H     5.1655698518    0.4104720049    1.5030567157
     H     5.3245422848    0.3356647593   -1.0445367613
     H     2.7118845361    0.0366555138   -1.8976353252
     H     2.7780788063    0.1953652372    2.3299653083
     C     0.7388104149   -4.2561025797   -0.4227867362
     C     1.1920196350   -2.9875019853   -0.2019137970
     N     0.1018437382   -2.1430617259   -0.0084770143
     C    -0.9967238225   -2.9087743910   -0.1198518733
     N    -0.6394362551   -4.1779565280   -0.3639708959
     H    -1.2802120257   -4.9574924551   -0.4857052587
     H     1.2588319074   -5.1847729488   -0.6080967682
     H     2.2059239765   -2.6232678850   -0.1674210184
     H    -2.0158744222   -2.5684813886   -0.0243270157
     C    -3.1348150507    0.4845390772   -0.0592753295
     O    -2.1117824013   -0.1452502153    0.1793455501
     H    -3.1014506440    1.5445391467   -0.3542366162
     H    -4.1207190539    0.0031110593    0.0190153242
     C    -0.0093512117    0.4536578916    4.4917729239
     C     0.2552450632    0.9032071481    3.2299869085
     N     0.0052296559   -0.1241038323    2.3208827360
     C    -0.4041574186   -1.1784879547    3.0448515474
     N    -0.4237450129   -0.8563109926    4.3444479638
     H    -0.6964201102   -1.4783004158    5.1010823604
     H     0.0583628581    0.9346258286    5.4570507744
     H     0.6122258041    1.8717908665    2.9167291960
     H    -0.6725098205   -2.1490477036    2.6585295532
     C    -0.4367020441   -0.3080835093   -3.0053180116
     O     0.2259224240   -0.0682731369   -2.0035970433
     H    -1.4852706031   -0.6341348609   -2.9380106857
     H     0.0078048373   -0.2017618036   -4.0050091804
