16
-9.9025685035191907e+02 frame 37   xyz file generated by TeraChem
    Fe     0.3820720389    0.1045504396    0.0050063491
     C    -0.6646599313    3.3915628608    0.0064960975
     O     0.2332161651    2.5209449384    0.0037940377
     O    -1.9796723697    2.8523029493    0.0087771038
     H    -1.8745049785    1.8639458679    0.0076320857
     C     3.7179234338   -0.8108399404    0.0089424637
     O     2.7465981723   -0.0204944452    0.0053208529
     O     3.3326706222   -2.1724972497    0.0106696698
     H     2.3401832872   -2.1884157938    0.0087725326
     C    -0.5017309379   -3.0660352546    0.0062993102
     O     0.3495842229   -2.1233040436    0.0047485489
     O    -1.8154550372   -2.6199716511    0.0062114749
     H    -1.7931000709   -1.6166758297    0.0057380996
     F    -1.5798878138    0.0350917136    0.0059839752
     F     0.6357485335    0.3297140008    1.7866986797
     F     0.6358437999    0.3296258330   -1.7765143059
