53
-1.8020251450692622e+03 frame 74   xyz file generated by TeraChem
    Fe     0.2740824935    0.0385900860    0.2931799570
     C     1.1717394634    4.8942950840   -0.1555063573
     C     1.8415118135    4.0887061441    0.7703931835
     C     1.5305501836    2.7373238377    0.8392972085
     N     0.5925232493    2.1601365870    0.0427912403
     C    -0.0511060948    2.9502725840   -0.8532870695
     C     0.2088417918    4.3081318955   -0.9814961281
     H     1.3956738109    5.9543858897   -0.2320388065
     H     2.5976751225    4.4986124036    1.4321373304
     H     2.0385911625    2.0901458807    1.5460877047
     H    -0.7947420468    2.4755090864   -1.4817581613
     H    -0.3364473015    4.8921374313   -1.7159423175
     C     5.1243591466   -0.6601858458   -0.3036943340
     C     4.4214059399   -1.3578036733    0.6820592929
     C     3.0533732904   -1.1533823763    0.8057245904
     N     2.3679172860   -0.2948887630    0.0092454972
     C     3.0593320522    0.3864690887   -0.9411976747
     C     4.4245976501    0.2260117539   -1.1287436589
     H     6.1941911480   -0.8026718717   -0.4261242685
     H     4.9222732047   -2.0530084521    1.3479248159
     H     2.4843186505   -1.6901597054    1.5548714791
     H     2.4951449576    1.0821266653   -1.5519806573
     H     4.9292895198    0.7898308475   -1.9066608473
     C    -0.9359341010   -4.8206063744    0.2980098009
     C    -1.6612878913   -3.9029761192    1.0628056635
     C    -1.2726855353   -2.5697393741    1.0631054343
     N    -0.2168056618   -2.1085934356    0.3445387976
     C     0.4871133221   -3.0105420704   -0.3871814563
     C     0.1618786105   -4.3603054352   -0.4339455882
     H    -1.2163539254   -5.8697011685    0.2770878076
     H    -2.5147382540   -4.2131767772    1.6571099169
     H    -1.8034979363   -1.8438548086    1.6680390400
     H     1.3394908605   -2.6330302912   -0.9394849868
     H     0.7628324114   -5.0358575928   -1.0341726421
     P    -2.5189293777    0.4656288856    0.0313133621
     H    -3.0199094270    1.6985267769   -0.4365457772
     H    -3.2466197541   -0.4182108965   -0.7920659872
     H    -3.2621955987    0.3489190602    1.2241958883
     C    -0.3222119212    0.5502616904    5.1739210023
     C    -0.7508135563    1.5494845376    4.2948772923
     C    -0.6000709730    1.3572372275    2.9285052772
     N    -0.0600675552    0.2257897123    2.4063658513
     C     0.3430600895   -0.7445684027    3.2654898541
     C     0.2344103190   -0.6165821687    4.6437275884
     H    -0.4247686493    0.6763490908    6.2478684033
     H    -1.1954900115    2.4693802741    4.6607026112
     H    -0.9143097743    2.1210135888    2.2267228525
     H     0.7374814523   -1.6521036009    2.8244491674
     H     0.5751372332   -1.4223451558    5.2858072016
     P    -0.0605407654   -0.3505055488   -2.4565525259
     H     0.9724294777   -1.0595412102   -3.1032988964
     H    -1.1705828374   -1.1254658910   -2.8486490094
     H    -0.1925904797    0.7385676605   -3.3437601289
