61
-1.3325392879478959e+03 frame 35   xyz file generated by TeraChem
    Fe    -0.0930262668    0.0016151378    0.0016957497
     O    -0.0727445491    2.1780244140    0.0147119672
     C     1.1264550086    2.9977213300   -0.1763759353
     C    -1.2389402701    3.0385965113    0.2417194032
     H    -2.0671497034    2.3987073740    0.5299378752
     H    -1.4669544764    3.5798470459   -0.6806090772
     H    -1.0057240483    3.7491735691    1.0389034270
     H     1.9346743188    2.3229416205   -0.4383140170
     H     1.3489962928    3.5295873128    0.7528399462
     H     0.9452767902    3.7182830500   -0.9781455999
     O     2.1454254134    0.0017244376    0.0005747723
     C     3.0016170101   -0.2892043276   -1.1529834471
     C     3.0040703529    0.2932042717    1.1521789348
     H     2.3702102617    0.6042561505    1.9751989435
     H     3.7005706660    1.0915096382    0.8821679141
     H     3.5641145412   -0.6079429653    1.4176940272
     H     2.3657390762   -0.5993436204   -1.9747665521
     H     3.6983113546   -1.0880243537   -0.8849969170
     H     3.5614673578    0.6118914103   -1.4190457004
     O    -0.0720878793   -2.1754736144   -0.0113728666
     C    -1.2378394560   -3.0368113954   -0.2374981816
     C     1.1277961260   -2.9945571337    0.1779063271
     H     1.9357999127   -2.3194886544    0.4397663945
     H     1.3499413480   -3.5254500907   -0.7519718253
     H     0.9478213256   -3.7159838977    0.9791732794
     H    -2.0670009211   -2.3975309164   -0.5243170633
     H    -1.4643203933   -3.5788437492    0.6847606322
     H    -1.0050943220   -3.7467574459   -1.0353903738
     C    -5.0461602728   -0.0003809625    0.0053710379
     C    -4.3313829842   -0.2057617858    1.1892511379
     C    -2.9439366962   -0.1992016679    1.1526597639
     N    -2.2440613852    0.0005734816    0.0032355827
     C    -2.9458359688    0.1999454810   -1.1451016910
     C    -4.3333225273    0.2055281050   -1.1795912491
     H    -6.1324297624   -0.0007621146    0.0061931900
     H    -4.8395985638   -0.3689484178    2.1341837160
     H    -2.3632739705   -0.3551212702    2.0504180314
     H    -2.3663778146    0.3562541472   -2.0435577399
     H    -4.8430997708    0.3683828248   -2.1237337293
     C     0.1404559943   -0.0191356663    4.9802911399
     C     0.0892380990   -1.2183310717    4.2640237052
     C     0.0250742635   -1.1746928999    2.8775887724
     N     0.0124935543   -0.0109493733    2.1779063149
     C     0.0593824780    1.1490877647    2.8840729717
     C     0.1221060614    1.1851654296    4.2700482546
     H     0.1922120975   -0.0225601157    6.0652409880
     H     0.0968648392   -2.1781991998    4.7704697997
     H    -0.0333536778   -2.0799924086    2.2926738016
     H     0.0552523041    2.0556424174    2.2978187870
     H     0.1574466181    2.1419619465    4.7810977839
     C     0.1304299196    0.0212285099   -4.9781490191
     C     0.0801587309    1.2203277296   -4.2616324613
     C     0.0190859957    1.1771465097   -2.8750640087
     N     0.0086796373    0.0134425052   -2.1752018622
     C     0.0546851415   -1.1466924968   -2.8812424308
     C     0.1143313565   -1.1827681983   -4.2673682372
     H     0.1797530258    0.0245218502   -6.0632142879
     H     0.0862267032    2.1801197988   -4.7682269182
     H    -0.0385156611    2.0825010621   -2.2901367272
     H     0.0525809618   -2.0531866227   -2.2948599516
     H     0.1491240826   -2.1396481532   -4.7782849677
