31
-2.1828852104642710e+03 frame 63   xyz file generated by TeraChem
    Fe    -0.0156794116    0.0301264741    0.1589848277
    Cl    -0.1618420681    2.3776332696   -0.2264759279
    Cl     2.2504959881   -0.2063452810    0.5204301588
    Cl    -0.3577624227   -2.3887010794    0.5136936078
     C    -4.4300135324    0.7086616864   -0.5750480378
     C    -3.1420390088    1.1287878862   -0.3927017890
     N    -2.3160787652    0.0355803022   -0.2010772306
     C    -3.0943585463   -1.0322100111   -0.2673345733
     N    -4.3808671536   -0.6712831489   -0.4932681864
     H    -5.1609433142   -1.3062595770   -0.5804101328
     H    -5.3501293273    1.2443075305   -0.7501830002
     H    -2.7381132570    2.1280561893   -0.3867154336
     H    -2.7540028661   -2.0488766569   -0.1467652702
     C    -0.6676618555    1.3130967376    4.2979958719
     C    -0.6660234384    1.5375051373    2.9500168131
     N    -0.3952281909    0.3542867491    2.2902775922
     C    -0.2301183469   -0.5734586250    3.2187748013
     N    -0.3892756145   -0.0346280341    4.4492396713
     H    -0.2984198438   -0.5338540133    5.3220403811
     H    -0.8312036869    1.9663265755    5.1406930498
     H    -0.8154816820    2.4529909624    2.4000553459
     H    -0.0008193199   -1.6095746826    3.0222166514
     C     0.4502032126   -0.0779146473   -4.1860979077
     C     0.0447395169    0.5292590595   -3.0306475653
     N     0.2389778131   -0.3340983899   -1.9711265790
     C     0.7565074862   -1.4449082816   -2.4673926263
     N     0.8986599055   -1.3324963414   -3.8077665684
     H     1.2859614862   -2.0391891616   -4.4159698231
     H     0.4684419047    0.2549872246   -5.2119394070
     H    -0.3489178351    1.5202119620   -2.8687998795
     H     1.0220776905   -2.3150215375   -1.8867234663
