58
-1.4773722202000085e+03 frame 59   xyz file generated by TeraChem
    Fe    -0.0239946389    0.0139387030    0.4986261488
     C     0.3752978463    4.9269246882   -0.1656214011
     C     1.3605441059    4.2078604569    0.5179007846
     C     1.2046067882    2.8381027968    0.6814905846
     N     0.1194393474    2.1643017178    0.2169885365
     C    -0.8325432807    2.8700487227   -0.4452310385
     C    -0.7376829550    4.2393754871   -0.6562725023
     H     0.4748749753    5.9981491596   -0.3148954682
     H     2.2435495308    4.6976413925    0.9155608088
     H     1.9599315693    2.2533247158    1.1943723415
     H    -1.6879249951    2.3131964440   -0.8077610844
     H    -1.5261535863    4.7536114164   -1.1961504855
     C     4.8087909528   -0.4658185612   -0.6691575432
     C     4.2419203697   -1.1885704412    0.3832708978
     C     2.8950436095   -1.0138128617    0.6739391632
     N     2.0996866960   -0.1608503267   -0.0176718877
     C     2.6610140566    0.5438389769   -1.0335063212
     C     3.9970860696    0.4159165399   -1.3885469446
     H     5.8582671479   -0.5849457019   -0.9222170860
     H     4.8316954176   -1.8813560214    0.9746298073
     H     2.4357961229   -1.5707546748    1.4802480463
     H     2.0183645719    1.2388553980   -1.5603137739
     H     4.3906238894    1.0010749230   -2.2134200855
     C    -0.7477086660   -4.8100271206   -0.4565174564
     C    -1.4942937847   -4.1473541157    0.5223611041
     C    -1.2557128547   -2.7998768414    0.7552913171
     N    -0.3087220628   -2.0974679951    0.0798879586
     C     0.4132839744   -2.7483247845   -0.8679017376
     C     0.2205453334   -4.0916256519   -1.1630241264
     H    -0.9192204026   -5.8618995459   -0.6660088392
     H    -2.2579675090   -4.6635175156    1.0951061541
     H    -1.8309275957   -2.2552536032    1.4952025949
     H     1.1637837695   -2.1702253160   -1.3936700608
     H     0.8218751662   -4.5627420177   -1.9337534692
     C    -4.9800911594    0.5085706005    0.6284472737
     C    -4.3724647995   -0.1790504126   -0.4264233054
     C    -2.9911294321   -0.3174364216   -0.4333924650
     N    -2.1978553712    0.2007323954    0.5387335978
     C    -2.7951647820    0.8642222633    1.5590795094
     C    -4.1715323441    1.0334597723    1.6394845993
     H    -6.0589381298    0.6294779298    0.6622187151
     H    -4.9582956359   -0.6080091622   -1.2329458179
     H    -2.4987966019   -0.8676953191   -1.2263348946
     H    -2.1491858695    1.2684429513    2.3279450859
     H    -4.5971787854    1.5689554202    2.4818355400
     C     0.6615818326   -0.2279122339    5.3597397598
     C     0.4371856141    1.0026462411    4.7364229162
     C     0.2495074813    1.0391090825    3.3616476825
     N     0.2723565387   -0.0794258487    2.5904493270
     C     0.4879275215   -1.2730854660    3.2031989656
     C     0.6865503513   -1.3826120271    4.5729671313
     H     0.8132305691   -0.2854258323    6.4337481824
     H     0.4088761860    1.9271142423    5.3039865456
     H     0.0774504268    1.9772063334    2.8501388981
     H     0.4979585298   -2.1567063316    2.5771834974
     H     0.8548540562   -2.3609168458    5.0113816766
     C    -0.2904297495    0.1417158803   -2.1132074452
     O    -0.3863649935    0.1978542577   -3.2372153279
