19
-1.4916525021355799e+03 frame 68   xyz file generated by TeraChem
    Fe    -0.0441292121   -0.0345569159    0.0591745878
     C     0.3524281155    2.1977017595    0.4302006938
     O     0.5453308960    3.2899544690    0.6099275009
     C     2.2882526306   -0.4130226120    0.4284797495
     O     3.3839758887   -0.5967790848    0.5989775280
     C    -0.3136171830   -2.2851724377   -0.3003914546
     O    -0.4472804239   -3.3858265951   -0.4828519698
     P    -2.6936779201    0.4468100013   -0.2941032925
     H    -3.4882086926   -0.7095601127   -0.1620877473
     H    -3.2240194541    1.3602432229    0.6384957668
     H    -3.0343120195    0.9792705122   -1.5530083511
     P    -0.3433047110   -0.4867332006    2.8195931988
     H    -0.0178956462    0.6336582582    3.6104831505
     H    -1.6402758810   -0.8487632299    3.2341258763
     H     0.4835741043   -1.5178031057    3.3092789964
     P     0.5739432767    0.2948416682   -2.6577704448
     H     1.9199445548    0.0276144125   -2.9786630983
     H    -0.1678054953   -0.5322863813   -3.5247658334
     H     0.3486548701    1.6012775139   -3.1360733879
