19
-1.0795465869381203e+03 frame 52   xyz file generated by TeraChem
    Fe     0.4778968929    0.2088796998    0.2296744370
     C    -0.3604777538    3.3101204517    0.4676302004
     O     0.4135138712    2.3235575824    0.6074185893
     O    -1.6820052797    2.9543315941    0.2067798268
     H    -1.7222004476    1.9600819046    0.2201761561
     C     3.5565943995   -0.6153621181    0.4386657555
     O     2.5341694022    0.1228217461    0.5295870364
     O     3.2645386307   -1.9439608779    0.1853358223
     H     2.2732631695   -2.0372556374    0.1240539880
     C    -0.3800964341   -2.8649396694   -0.4261309651
     O     0.4311098063   -1.9624488047   -0.0413603053
     O    -1.6891846326   -2.4242989601   -0.4724552074
     H    -1.7020461146   -1.4710030430   -0.1767547533
     F    -1.5570276798    0.1967249628    0.2965382403
     C    -0.3830076803   -0.1856702807    3.3630014644
     O     0.4050329636   -0.1047366202    2.3763059958
     O    -1.7280154268   -0.0822882333    2.9998491468
     H    -1.7387039260    0.0363269246    2.0119396346
     F     0.6769012527    0.4818868556   -1.5529808500
