27
-8.5393846189450767e+02 frame 72   xyz file generated by TeraChem
    Fe     0.0043765376   -0.2631774710    0.0370196710
     H    -0.1721106432    5.0502520296   -0.7096919727
     H    -1.2215712207    4.3573764052   -1.9806536527
     C    -0.9869694172    4.3514524745   -0.9134230374
     N    -0.5877691711    3.0361442716   -0.5337922314
     C    -0.2925188527    1.9491284546   -0.2514393079
     H    -1.8717356664    4.6365111219   -0.3391286469
     H     5.2637074346    1.1434242718    0.6345055931
     H     5.3839270092   -0.4783141044   -0.1048082745
     C     4.8776608357    0.4890366748   -0.1508443155
     N     3.4771369039    0.2966880818    0.0373090651
     C     2.3312100434    0.1363199024    0.1609460013
     H     5.0485726736    0.9451504645   -1.1290897690
     H     0.7947744373   -5.3482902508    1.5870173620
     H    -0.4182376127   -5.4131074375    0.2755617748
     C     0.5569644063   -5.0195207603    0.5725257247
     N     0.5120600935   -3.5949974147    0.5348509718
     C     0.4424570534   -2.4374247123    0.4699488042
     H     1.3239901999   -5.3731902557   -0.1206488547
     F    -1.7114915709   -0.5301325114    0.3162151486
     H     0.0534751861    1.4912963400    5.1798558723
     H    -1.1872330901    0.2059029943    5.1796464504
     C    -0.1556856872    0.4517553647    4.9155879042
     N     0.0224333414    0.2762423011    3.5115449703
     C     0.1379037180    0.1268421886    2.3633058169
     H     0.5298981941   -0.2079544663    5.4530633583
     F     0.2824936593   -0.5300419749   -1.6790294897
