13
-6.4629693602818338e+02 frame 34   xyz file generated by TeraChem
    Fe    -0.2725219295   -0.0553479790   -0.3007175502
     C    -0.5277249893    2.2533590920   -0.5550879431
     N    -0.7456515118    3.3894646737   -0.7729124989
     C     2.1991555773    0.3086061914   -0.3426049207
     N     3.3465673123    0.4342287230   -0.5806951066
     C     0.2022477411   -2.3086322234    0.1723600711
     N     0.3416876227   -3.4693923815    0.3112180179
     O    -2.1205690649   -0.3398954123   -0.0509799641
     H    -2.2045833683   -0.3043648038    0.9174215059
     C    -0.3180421327    0.3061159276    2.1733501065
     N    -0.5580052624    0.4308071402    3.3204942786
     O    -0.0221559600   -0.3398229433   -2.1487381432
     H     0.9463912311   -0.3051304066   -2.2316882210
