13
-1.3672953071139832e+03 frame 5   xyz file generated by TeraChem
    Fe     0.0000113255    0.0000065408    0.0035282326
     C     0.0000084824    2.1317165623    0.0034577265
     N     0.0000046270    3.3032791002    0.0033855416
     C     2.1317204616    0.0000023873    0.0034498905
     N     3.3032828280   -0.0000005293    0.0033443423
     C     0.0000142662   -2.1317039995    0.0036916514
     N     0.0000168670   -3.3032667854    0.0037849191
     C    -2.1316996849    0.0000092762    0.0037013711
     N    -3.3032625374    0.0000128771    0.0038239679
     C    -0.0001326665   -0.0001216584    2.2596218743
     S    -0.0002459062   -0.0002584047    3.7912142511
     C     0.0001073931    0.0001086466   -2.2522690983
     S     0.0001747803    0.0002159007   -3.7838566035
