43
-2.0254095668176333e+03 frame 70   xyz file generated by TeraChem
    Fe    -0.0940297539    0.0107745155   -0.0487507854
     O     0.1316403432    2.2961905367   -0.0581069070
     C    -0.8771638640    3.2567498334    0.0253697141
     C    -0.3406002140    4.4911999862   -0.0849637775
     C     1.0779981352    4.3227840525   -0.2570951517
     C     1.3257754573    2.9952185992   -0.2386565749
     H    -1.8781285522    2.8831730211    0.1656651277
     H    -0.8863569226    5.4238004530   -0.0585040416
     H     2.2098493778    2.3927944532   -0.3520444946
     H     1.8132840796    5.1036786083   -0.3909701085
     O     2.1785115104   -0.0286037247    0.0422678221
     C     2.9412205901    0.1012758605    1.2034322704
     C     4.2250035303   -0.2320376920    0.9400450653
     C     4.2919268624   -0.5975213844   -0.4509908317
     C     3.0454025782   -0.4678873564   -0.9565473947
     H     2.4074525735    0.4443242676    2.0745483536
     H     5.0424007166   -0.2182598698    1.6475625829
     H     2.5978991963   -0.6180188622   -1.9258129546
     H     5.1688120253   -0.9136751747   -0.9982448432
     O     0.0199213887   -2.2634962215    0.0068539734
     C     1.0986216647   -2.9465245608    0.5708074688
     C     1.0360994795   -4.2530304463    0.2336674445
     C    -0.1335844870   -4.4226816659   -0.5884121748
     C    -0.7188059648   -3.2111877769   -0.7040288677
     H     1.7800255311   -2.3473132455    1.1523621950
     H     1.7367421936   -5.0204011088    0.5316424732
     H    -1.6154040631   -2.8504038788   -1.1789630948
     H    -0.4918704458   -5.3428344245   -1.0279460928
     S    -2.5767261583    0.2542917083   -0.4399271993
     C    -3.1726002861   -1.1189941087    0.3134209989
     N    -3.5678813978   -2.0870145469    0.8457489043
     O    -0.2299773710    0.0750880418    2.1187591208
     C    -0.7549418223   -0.9275035622    2.9405861407
     C    -0.8934509698   -0.4502971114    4.1952884926
     C    -0.4473030779    0.9198872692    4.1852866737
     C    -0.0632587422    1.2089380690    2.9236645412
     H    -0.9685815030   -1.8624271970    2.4498616618
     H    -1.2759056978   -1.0019741315    5.0424636534
     H     0.3108441805    2.0821625199    2.4160046530
     H    -0.4263381532    1.6004797187    5.0249888409
     S    -0.3667469816   -0.3099527770   -2.5211158752
     C    -0.2456225732    1.2766001461   -3.0599173384
     N    -0.1593729834    2.3807408889   -3.4423116024
