17
-2.9602111068500690e+03 frame 61   xyz file generated by TeraChem
    Fe     0.9458547420   -0.0600419096    0.6461964559
     S     0.6166833552    2.4898131346    0.3171567977
     C    -0.5663735009    2.6277253917   -0.8693669394
     N    -1.3917580679    2.7351204721   -1.6971924937
     S     3.4739717780    0.4693540288    0.9280431228
     C     4.2128687741    0.3564768614   -0.5723840469
     N     4.7458167491    0.2790714728   -1.6157444551
     S     1.2742080237   -2.5610951615    0.9753503067
     C     0.1922814482   -3.2617619802   -0.1114326335
     N    -0.5571342747   -3.7588785190   -0.8641185120
     C    -1.0976926655   -0.3554708331    0.8454927815
     S    -2.5802212432   -0.6452697414    1.0999394338
     S     1.2228021113    0.4696965426    3.1754566564
     C    -0.2788080876    0.3565116829    3.9118339765
     N    -1.3229258633    0.2787812709    4.4432757671
     C     1.1473134508   -0.3547288586   -1.3971183089
     S     1.4016563779   -0.6441270173   -2.8797119083
