33
-7.6658846550338012e+02 frame 93   xyz file generated by TeraChem
    Fe    -0.0070659608    0.0056403824   -0.0054575051
     H     1.6735945850    4.8315763418   -1.2194990908
     H    -0.0961426443    5.0675915412   -1.4050585965
     C     0.6957523131    4.6954748572   -0.7488351737
     N     0.4850144244    3.2915298760   -0.5252813860
     C     0.3147996706    2.1595735911   -0.3451357832
     H     0.6639807910    5.2113226015    0.2150357897
     H     5.1766806263   -0.7824304481    0.3113513968
     H     4.7965957006   -1.7984523222   -1.1189843979
     C     4.6768073088   -0.8124567491   -0.6610632973
     N     3.2750265248   -0.5649753902   -0.4638858647
     C     2.1446527338   -0.3654939206   -0.3043901783
     H     5.0797327048   -0.0369619623   -1.3186740228
     H    -0.3964606914   -4.9296321455    1.7639728149
     H    -1.6887476548   -4.9479578390    0.5184264431
     C    -0.6436430924   -4.6991906901    0.7237010959
     N    -0.4552766693   -3.2909089913    0.5079172542
     C    -0.3032000489   -2.1555144444    0.3321203516
     H     0.0172214152   -5.2477201939    0.0465165144
     H    -5.0833820967   -0.0749931857    1.3438656047
     H    -4.8509912302    1.6935123173    1.1435582388
     C    -4.7078193936    0.7117009133    0.6833778384
     N    -3.3013427697    0.5029116516    0.4741599925
     C    -2.1672090217    0.3346750870    0.3057264902
     H    -5.2153382645    0.6687690687   -0.2844697860
     N     0.2702790536    0.3401855780    2.1579059339
     H    -0.1896793702    1.1929398289    2.4914647553
     H    -0.0979292193   -0.4301510775    2.7245967800
     H     1.2613623963    0.4312550971    2.4016266418
     N    -0.3687217837   -0.2273374296   -2.1676164298
     H    -1.1823027960    0.3014666558   -2.4971469873
     H     0.4282907363    0.0829087525   -2.7321448615
     H    -0.5374789802   -1.2060998946   -2.4201359436
