19
-1.4110382967559231e+03 frame 65   xyz file generated by TeraChem
    Fe     0.4114934645    0.0880403100    0.0879654272
     O     0.2883594866    2.2180775708    0.4377854939
     H     0.0448354551    2.7755260426   -0.3225465381
     H    -0.2367875831    2.5206351815    1.1993358848
     O     2.4778365077    0.4392376555    0.2801422487
     H     3.0876463786   -0.2873454929    0.4945688281
     H     2.7986312646    1.2598671711    0.6918704529
     O     0.9956195492   -1.9783140115   -0.1689712177
     H     0.9967600906   -2.3579727592   -1.0656510693
     H     0.6204491173   -2.6471563484    0.4302798443
     O    -1.6096966265   -0.1898144914   -0.2197370266
     H    -2.0302581219   -0.2393886780   -1.1053331432
     H    -2.2476117379   -0.4211466947    0.4905188763
     S     0.1998819032   -0.3151797120    2.5689538477
     C    -1.4469862283   -0.6203931263    2.5990722973
     N    -2.6011121538   -0.8176989332    2.5103571525
     S     0.8108221448    0.4930010872   -2.3684895602
     C    -0.7429035812    0.1997958333   -2.9205882129
     N    -1.8605762881   -0.0286628852   -3.2008242525
