48
-1.3300379113829845e+03 frame 68   xyz file generated by TeraChem
    Fe     0.0336683569    0.1268024093    0.0253446936
     C     1.2924928469    4.1740429387    1.1333301493
     C     1.1892708837    2.8392003350    1.4065854573
     N     0.3888279177    2.2334259492    0.4505920492
     C     0.0262206827    3.1923037096   -0.3949696387
     N     0.5476087840    4.3747502816   -0.0114105399
     H     0.4240616506    5.2570473037   -0.4930008798
     H     1.8172103847    4.9757866978    1.6296274378
     H     1.6429894961    2.2753839874    2.2063082004
     H    -0.5781508682    3.0594803149   -1.2780405864
     C     4.3745387952   -0.0707701485    0.0055435992
     C     3.1353190336    0.1956489873   -0.5055089274
     N     2.1673834969   -0.1915124827    0.4111567542
     C     2.8206393801   -0.6800068947    1.4619698307
     N     4.1521292854   -0.6247137632    1.2501493618
     H     4.8659065656   -0.9374692645    1.8969070567
     H     5.3668947090    0.0797891404   -0.3909451718
     H     2.8678106750    0.6398405061   -1.4511244942
     H     2.3738079804   -1.0734170887    2.3619006492
     C     0.2447747337   -4.1500067537   -0.9381958696
     C     0.8060272523   -2.9293866680   -0.6856034645
     N    -0.1845124321   -2.0375017826   -0.3013241516
     C    -1.3287269703   -2.7155786434   -0.3274161458
     N    -1.1053416285   -3.9924341517   -0.7023992826
     H    -1.8123267385   -4.7112808700   -0.7993276708
     H     0.6706894980   -5.0890259414   -1.2568392705
     H     1.8384995457   -2.6274698193   -0.7589698017
     H    -2.3038313020   -2.3227683750   -0.0841423693
     C    -4.3710406488    0.5647799386    0.0376302905
     C    -3.2007902667    0.3219137551    0.7020830332
     N    -2.1391341417    0.4071471161   -0.1853461360
     C    -2.6686778565    0.6960482636   -1.3730672010
     N    -4.0099036452    0.8000059907   -1.2730518062
     H    -4.6424630951    1.0171288991   -2.0339815581
     H    -5.3977827849    0.5949502207    0.3689064892
     H    -3.0518009948    0.0952261403    1.7452674800
     H    -2.1148595599    0.8261297226   -2.2901178467
     C    -0.5727602267   -1.2740655798    4.2124672355
     C    -0.2650912314   -1.4737352110    2.8941637874
     N    -0.3416982144   -0.2693606358    2.2098517907
     C    -0.6955329808    0.6420880831    3.1110360706
     N    -0.8442218069    0.0725878668    4.3274802974
     H    -1.1079387942    0.5554213908    5.1780637392
     H    -0.6261977645   -1.9486260852    5.0533217150
     H    -0.0084186039   -2.3946694623    2.3947674901
     H    -0.8483999843    1.6933961136    2.9198542862
     O     0.2806775070    0.4820800845   -1.7551749038
     H     0.3862599725   -0.2750802290   -2.3550935943
