27
-7.3688004874001422e+02 frame 69   xyz file generated by TeraChem
    Fe     0.2654865526    0.0853335645    0.0537452586
     O     0.4266700852    2.0017698902   -0.4312727426
     H     1.3158063460    2.2632444075   -0.1463549575
     O     2.2026767052   -0.0988415222    0.0388300311
     H     2.5258961781    0.5283125966   -0.6250671789
     O    -0.0383195217   -1.7808537330    0.3517287181
     H    -1.0077181652   -1.8449094066    0.3583629876
     O    -1.6515333207    0.3495369889   -0.1411499578
     H    -1.7187253692    1.3038601514   -0.3071952221
     O     0.2697640476    0.5271398291    2.3261186029
     C     1.3916422841   -0.0976231602    2.9464873171
     C    -0.9675830897    0.2000921952    2.9416386562
     H    -1.7423027773    0.5906617458    2.2806234661
     H    -1.0292955937    0.6449496965    3.9483569943
     H    -1.0809742312   -0.8908973832    3.0117538581
     H     2.2166391282    0.0370980294    2.2439248690
     H     1.2075143826   -1.1724762138    3.0755465986
     H     1.5929879394    0.3683844045    3.9246903384
     O     0.2095025772   -0.3123054611   -2.5058812892
     C    -0.3377065375    0.8299561581   -3.1399575172
     C    -0.5193636847   -1.4988105334   -2.7587431255
     H    -0.0869478797   -2.2656941105   -2.1154170499
     H    -0.4497510777   -1.7867313716   -3.8231095329
     H    -1.5741394353   -1.3598799913   -2.4822997543
     H     0.1630711655    1.6844822612   -2.6818139190
     H    -1.4152950867    0.9068708256   -2.9358383951
     H    -0.1741298514    0.7919093116   -4.2320969955
