29
-8.8013429486186533e+02 frame 95   xyz file generated by TeraChem
    Fe     0.3559205901    0.0149688439    0.3999986357
     C     0.0044441476    3.1763906877   -0.0524540137
     N     0.1316629847    2.0294157742    0.1151540105
     C    -0.1514423095    4.5980645621   -0.2600579141
     H    -0.0900309669    4.8258015438   -1.3330632747
     H     0.6424483134    5.1411120974    0.2703029449
     H    -1.1285533495    4.9251668895    0.1211679387
     C     3.5043618079   -0.1524568738    0.0364563674
     N     2.3455960917   -0.0892362472    0.1630500577
     C     4.9371093538   -0.2313391082   -0.1193272970
     H     5.3712910905    0.7777073925   -0.0941522664
     H     5.1808239776   -0.7048172823   -1.0808414432
     H     5.3671902999   -0.8299344566    0.6958020592
     C    -0.1181941616   -3.1447361610    0.0277243088
     N     0.0553416837   -1.9997934058    0.1635578586
     C    -0.3323674772   -4.5644219952   -0.1394854070
     H     0.6299812291   -5.0926837557   -0.1079954162
     H    -0.8178429631   -4.7559754748   -1.1062528338
     H    -0.9765765989   -4.9408558884    0.6667669879
     C    -2.0540296832    0.0458667327    0.2864220264
     O    -3.1795776686    0.0564356801    0.2696401107
     C     0.0865599555    0.1218633111    3.5576992797
     N     0.1804659430    0.0802570897    2.3947871520
     C    -0.0290001043    0.1724536194    4.9953628085
     H     0.9720373311    0.1732400917    5.4490670279
     H    -0.5864557879   -0.7037425419    5.3548447100
     H    -0.5608562024    1.0863819071    5.2944035209
     C     0.1699650841   -0.0047761851   -2.0043045449
     O     0.1232226200   -0.0132557575   -3.1290346061
