15
-7.2829428837011938e+02 frame 65   xyz file generated by TeraChem
    Fe    -0.1467560065    0.0061555821   -0.1824121835
     C    -0.2518180992    2.2667137930    0.3078697281
     O    -0.3241448155    3.3551874877    0.5694629454
     C     2.1496020088    0.3421471330   -0.4080001466
     O     3.2513176160    0.5097273597   -0.5368344124
     C     0.3301654158   -2.2478308290   -0.4367874069
     O     0.5463578186   -3.3445225154   -0.5312799267
     O    -2.0875820455   -0.2977707258    0.1878914083
     H    -2.7838321662   -0.3177965482   -0.5159692254
     H    -2.5530058889   -0.4623281997    1.0468481616
     C     0.3307300370   -0.3173239851    2.0928109341
     O     0.5892524820   -0.4667480565    3.1743755164
     O    -0.4542255768    0.2760602350   -2.1456447606
     H    -0.3735521271   -0.4002984404   -2.8648634916
     H    -0.5630021922    1.1479422304   -2.6025168008
