47
-1.1501032640850806e+03 frame 111   xyz file generated by TeraChem
    Fe    -0.0061569599   -0.0015350531    0.0071793434
     H     1.5306156064    5.0435342368   -0.4643378303
     H     0.2789224866    4.9518702283   -1.7438424125
     C     0.5084828680    4.7338434724   -0.6975944179
     N     0.3935079060    3.3188583129   -0.4838503290
     C     0.2942713604    2.1768352238   -0.3113599665
     H    -0.1990853173    5.2467775987   -0.0409855688
     H     4.7787168931   -1.3034769871    1.7494966234
     H     5.0139469907   -1.5600328442   -0.0096533961
     C     4.6698414919   -0.8601850993    0.7562701663
     N     3.2820747181   -0.5718543460    0.5286083985
     C     2.1602586485   -0.3442402816    0.3458456361
     H     5.2373516289    0.0722265873    0.6962739120
     H    -0.2842453662   -4.9561048593    1.7557619858
     H    -1.5455812663   -5.0449768477    0.4855307347
     C    -0.5212964682   -4.7369354231    0.7114305049
     N    -0.4059627644   -3.3219341045    0.4979340814
     C    -0.3066133089   -2.1798871715    0.3256744514
     H     0.1805899807   -5.2503376074    0.0491146292
     H    -5.2500264867   -0.0747603671   -0.6791628357
     H    -5.0254607295    1.5596745788    0.0213526336
     C    -4.6820564543    0.8571528902   -0.7424360177
     N    -3.2943352453    0.5688619561   -0.5144581018
     C    -2.1725325460    0.3412758883   -0.3315780761
     H    -4.7911303066    1.2972859926   -1.7370461235
     C    -0.6504014745    0.7902958205    4.8490219804
     C     0.3928563048    1.4147318825    4.1584034821
     C     0.5444204575    1.1662068885    2.8015432146
     N    -0.2836348878    0.3384456890    2.1177385856
     C    -1.2939476570   -0.2648831811    2.7914939111
     C    -1.5064804241   -0.0646512300    4.1480692004
     H    -0.7929672169    0.9660121330    5.9112814226
     H     1.0810639078    2.0850344048    4.6628703409
     H     1.3453081708    1.6331575616    2.2386320083
     H    -1.9416149233   -0.9205436475    2.2197912932
     H    -2.3286963873   -0.5699352695    4.6441474244
     C     0.6382725215   -0.7928986476   -4.8347552520
     C     1.4943666227    0.0619510974   -4.1337008782
     C     1.2819056295    0.2619438561   -2.7770788006
     N     0.2716528765   -0.3415355885   -2.1033693515
     C    -0.5564213468   -1.1691973775   -2.7872722289
     C    -0.4049270474   -1.4174824830   -4.1441859340
     H     0.7807906007   -0.9684342085   -5.8970508659
     H     2.3165478004    0.5673319166   -4.6297381431
     H     1.9295997519    0.9175026333   -2.2052909177
     H    -1.3572478773   -1.6362937754   -2.2243927059
     H    -1.0931381945   -2.0877238563   -4.6487291705
