25
-1.4953603466624609e+03 frame 108   xyz file generated by TeraChem
    Fe     0.1145270545    0.0343048606    0.0262350305
     C    -0.3139371433    3.2279429927   -0.3045725909
     O    -0.1746756168    2.0019667782   -0.2633640944
     H    -0.4240136939    3.8110281846    0.6205829235
     H    -0.3314154281    3.7501920125   -1.2714046785
     C     3.2836712564    0.6745943474    0.4569613105
     O     2.0820531997    0.4156225315    0.3451707628
     H     3.7237466048    0.8493456741    1.4488088278
     H     3.9289687440    0.7330350592   -0.4308829524
     C     0.9339645098   -3.0460677399    0.4734318061
     O     0.3821213488   -1.9576650080    0.2838292180
     H     0.3346156882   -3.9667791422    0.4851659146
     H     2.0194169611   -3.1141843603    0.6322267486
     P    -2.5460790779   -0.3060001688   -0.4109560116
     H    -2.9735511338   -1.6389904507   -0.2591690949
     H    -3.4182530243    0.4014514432    0.4396146359
     H    -3.0362177218    0.0359245981   -1.6866443727
     P    -0.5817517884    0.0533309143    2.6999441126
     H    -0.9663722214    1.3006364366    3.2299972100
     H    -1.6219396713   -0.7927369006    3.1317106749
     H     0.4787154916   -0.3206008115    3.5491342804
     P     0.3553319181   -0.4672752850   -2.6877719611
     H     1.6846928281   -0.6575334914   -3.1155358010
     H    -0.2941671194   -1.5995954615   -3.2173415890
     H    -0.0900860431    0.5660656907   -3.5348444512
