33
-8.6263750595742715e+02 frame 70   xyz file generated by TeraChem
    Fe    -0.0932225116   -0.0844750088   -0.0076298632
     C     0.3944093171    3.1351634516   -0.5608311003
     N     0.2381175573    2.0277939188   -0.2624328215
     C     0.5892621681    4.5257492143   -0.9416019170
     H     0.2164925852    4.6850259447   -1.9589321201
     H     1.6550587188    4.7746207472   -0.9082047328
     H     0.0470360181    5.1815951995   -0.2526488503
     C     3.1436311565   -0.5896305598   -0.4619530699
     N     2.0311965376   -0.4073076072   -0.1994844843
     C     4.5405683163   -0.8194650287   -0.7981337204
     H     5.0462478504    0.1387021123   -0.9571972135
     H     4.6066709306   -1.4139366737   -1.7154047698
     H     5.0386184258   -1.3559671237    0.0159626005
     C    -0.5386001417   -3.3295710340    0.6052324290
     N    -0.3928313954   -2.1920733624    0.4466274989
     C    -0.7210519934   -4.7602247156    0.8023959726
     H     0.2518803971   -5.2626056179    0.7921568435
     H    -1.3423754371   -5.1702047525   -0.0006312232
     H    -1.2093511733   -4.9452272813    1.7646870156
     C    -3.3301416416    0.4831304865    0.5222156964
     N    -2.1977785273    0.2769689190    0.3982953024
     C    -4.7542371246    0.7428681694    0.6746299354
     H    -5.1556247979    0.1487575297    1.5021092415
     H    -5.2813819858    0.4769182695   -0.2475185111
     H    -4.9173092003    1.8049650327    0.8854078456
     C     0.4158912152    0.3842205636    3.2790676951
     N     0.2250045746    0.2078184784    2.1515440769
     C     0.6556609786    0.6050839000    4.6980489389
     H    -0.2907790286    0.5626045077    5.2467784156
     H     1.1128641648    1.5882701476    4.8498127380
     H     1.3291015348   -0.1658015761    5.0865280251
     O    -0.3777433643   -0.3508093296   -1.7430778518
     H    -0.9348674344   -0.9027656989   -2.3200202192
