37
-9.1907651048797243e+02 frame 82   xyz file generated by TeraChem
    Fe     0.0443235823    0.0075873847    0.0436854050
     C     0.5318095668    3.1780765870   -0.4528284014
     N     0.3571133493    2.0421916240   -0.2793983714
     C     0.7498486130    4.5953396613   -0.6679000528
     H     0.7632247597    4.8108541966   -1.7432429198
     H     1.7096602651    4.8951636797   -0.2298322246
     H    -0.0555463890    5.1714278171   -0.1962067970
     C     3.2370388438   -0.4613496059    0.5206790072
     N     2.1000016982   -0.2952092278    0.3483599131
     C     4.6561410332   -0.6683285027    0.7379419436
     H     5.1801967360    0.2947344747    0.7171878672
     H     5.0626884824   -1.3152696483   -0.0488233297
     H     4.8177050283   -1.1441940218    1.7127313739
     C    -0.4960674854   -3.1644781345    0.4816870955
     N    -0.3047715528   -2.0295230711    0.3207093070
     C    -0.7339117876   -4.5804284062    0.6845566421
     H     0.1887952697   -5.0682700632    1.0215484859
     H    -1.0611672834   -5.0415264013   -0.2552756781
     H    -1.5126654611   -4.7218077486    1.4438398361
     H    -5.0128531290    1.3321129725   -0.0073135853
     H    -4.7388332943    1.1197647767   -1.7665906515
     C    -4.6142047757    0.6680208732   -0.7788406708
     N    -3.2140837236    0.4683698351   -0.5365209126
     C    -2.0842210977    0.3078647080   -0.3392605931
     H    -5.1191047812   -0.3008608156   -0.7404569393
     C    -0.4535167846    0.5351444577    3.2237584804
     N    -0.2825301461    0.3479375735    2.0897957957
     C    -0.6640415060    0.7681582897    4.6398215606
     H    -1.6371655826    1.2487220788    4.7975468908
     H     0.1258262966    1.4209216459    5.0307085126
     H    -0.6425387058   -0.1853323684    5.1810880192
     H     1.0005948500    0.1560806829   -5.0974538822
     H     1.4073438646   -1.5564772576   -4.7550544550
     C     0.6581704971   -0.7703652424   -4.6289216810
     N     0.4689290833   -0.5352002305   -3.2260505729
     C     0.3184022558   -0.3462189436   -2.0933953553
     H    -0.2945549476   -1.0838191940   -5.0640097970
