24
-2.2185572371268909e+03 frame 74   xyz file generated by TeraChem
    Mn     0.0342711773    0.0500982712    0.0145652546
     P    -0.4361464335    2.7839420600    0.3117452417
     H    -1.3603547373    3.2120783396    1.2890086610
     H     0.6459911848    3.6230826706    0.6520938770
     H    -0.9329274409    3.5068468496   -0.7936489022
     P     2.7649883120    0.4613135161    0.4297942413
     H     3.1564379805    1.5809679245    1.1942352400
     H     3.4998914324   -0.5335550004    1.1098402282
     H     3.6220477279    0.6456094483   -0.6767183645
     P     0.4403436435   -2.6794004147   -0.3779620046
     H     1.7548441302   -3.1943347157   -0.3778582507
     H    -0.1432197420   -3.5851920993    0.5340566505
     H    -0.0177322350   -3.2618532754   -1.5793995183
     P    -2.6960195134   -0.3284325103   -0.4670770713
     H    -3.1185350786   -1.5005890009   -1.1307252897
     H    -3.5743759556   -0.3777465485    0.6365329983
     H    -3.3902657511    0.6205359780   -1.2487654190
     P    -0.3190823098   -0.3281068759    2.7544813508
     H     0.4493550263    0.4559392879    3.6420012377
     H    -1.5940450424   -0.0953331843    3.3135144701
     H    -0.0655388116   -1.5978492772    3.3163731397
     S     0.5248250869    0.6314923245   -2.6717323579
     H     1.3130845186   -0.3490188124   -3.1613042147
     H    -0.5554738401    0.2597991281   -3.3909714457
