13
-2.3607325246569089e+03 frame 88   xyz file generated by TeraChem
    Mn     0.0328145118   -0.0000849577    0.0109368445
     C     0.3761706147    2.2980678910   -0.3627356154
     S     0.5021988443    3.6213842588   -1.1161064699
     C     2.3661249629   -0.3714837346   -0.2941696758
     S     3.7124880578   -0.6697556212   -0.9460843864
     C    -0.2757000580   -2.3019108899    0.3824864250
     S    -0.4882140318   -3.7813564433    0.0606346161
     C    -2.3009176627    0.4029727273    0.4025112387
     S    -3.8055083688    0.5951876990    0.2156485488
     C     0.4005060158    0.3380072159    2.3761592912
     S     0.6761982352    0.5474098866    3.8620780063
     O    -0.1740219679   -0.2834310818   -1.8325950294
     H    -1.0221474579   -0.3950007963   -2.2849350987
