23
-7.1439348343479230e+02 frame 91   xyz file generated by TeraChem
    Mn     0.0360820003    0.0325512719    0.1282316021
     C     0.4438252450    3.2544184084    0.8509150164
     O     0.2235111928    2.2539157546    0.1785631448
     H     0.6763564135    3.1860236661    1.9241779472
     H     0.4117254994    4.2524722008    0.3916540636
     C     3.0852554266   -0.3516220323   -0.8154179306
     O     2.2168797607   -0.2664142258    0.0453986640
     H     4.1254680506   -0.5675634059   -0.5355535409
     H     2.8481943282   -0.2137097879   -1.8803970985
     C    -0.9892077510   -2.9820953083   -0.2578781852
     O    -0.1333654450   -2.1069199405   -0.3330716281
     H    -1.9882560795   -2.7719982327    0.1524560068
     H    -0.7687554216   -4.0016544832   -0.6029727890
     O    -2.1284846883    0.1403301779    0.5218057063
     H    -2.8194357821    0.5358164261   -0.0367201456
     H    -2.4251100044    0.2340604989    1.4441607255
     C     1.0124188695   -0.5458634999    3.1123952611
     O     0.1508809845   -0.2078814204    2.3056537511
     H     0.7711764059   -0.6120718342    4.1821480582
     H     2.0345600040   -0.7848486192    2.7855825384
     O    -0.0979346087    0.4257794824   -2.0207639437
     H    -0.3194537936   -0.1702198864   -2.7560802461
     H    -0.1712342015    1.3381464280   -2.3498770089
