41
-1.8809526090877248e+03 frame 76   xyz file generated by TeraChem
    Mn     0.1105803149    0.0839573502    0.2553875669
     C     1.4826835403    4.2178958351   -0.6031902988
     C     1.6117230817    2.8637071984   -0.4636120409
     N     0.4111562765    2.3212127308   -0.0278673728
     C    -0.4276376309    3.3454093870    0.0923951101
     N     0.1821803316    4.5027756110   -0.2448292538
     H    -0.2438464259    5.4215024772   -0.2339275223
     H     2.1766147341    4.9838909488   -0.9136212880
     H     2.4792474360    2.2479839563   -0.6451495903
     H    -1.4576334740    3.2918775382    0.4119343406
     C     4.4521248741   -0.8969544708    0.1277038770
     C     3.1948274581   -0.8638129099   -0.4089286313
     N     2.3139861309   -0.2904017233    0.4966188495
     C     3.0390351469    0.0133777868    1.5687677586
     N     4.3305653881   -0.3356466655    1.3818241210
     H     5.0807410801   -0.2065352205    2.0497205807
     H     5.3938356902   -1.2600215499   -0.2544079746
     H     2.8641554390   -1.2182204494   -1.3732976528
     H     2.6716490600    0.4773003574    2.4719418193
     C     0.0563738911   -4.3730659499    0.0918573113
     C     0.5269813686   -3.1532827761    0.4943400287
     N    -0.2687268115   -2.1459211938   -0.0327002439
     C    -1.2059982583   -2.7615016205   -0.7458636752
     N    -1.0427693474   -4.1015800057   -0.6944393686
     H    -1.6252186720   -4.7876081310   -1.1590092137
     H     0.3954250393   -5.3797074998    0.2827309024
     H     1.3853669383   -2.9318593766    1.1092522960
     H    -1.9982543930   -2.2844343843   -1.3031169271
     C    -2.3233682182    0.4409757801   -0.0560302958
     S    -3.8340866116    0.6481101461   -0.0926532629
     C    -0.4002849786    0.8361953053    4.5807306494
     C    -0.1041370906    1.2053606594    3.2972378694
     N    -0.2386974859    0.1109603520    2.4557335019
     C    -0.6143720633   -0.9035229620    3.2274962764
     N    -0.7213033496   -0.5034879553    4.5132169922
     H    -0.9945150282   -1.0883644665    5.2936533115
     H    -0.4143252549    1.3871604096    5.5086490955
     H     0.1941628135    2.1714353704    2.9191257365
     H    -0.8085617037   -1.9119514100    2.8936762394
     C     0.3045318439    0.1445958655   -2.2488741452
     S     0.4073623111    0.2997928788   -3.7631866436
