23
-4.9965217219057593e+02 frame 30   xyz file generated by TeraChem
    Mn     0.0012457897    0.0232931647    0.2914785427
     N    -0.2991180053    2.3030396059    0.1159042346
     H    -1.2855043502    2.5690116495    0.1736245718
     H     0.1648343693    2.8628361834    0.8367225021
     H     0.0218479465    2.6946377903   -0.7738046357
     N     2.2727243299    0.3246165651   -0.0135002907
     H     2.5360577624    1.3133361546   -0.0232329378
     H     2.8687241897   -0.0981320245    0.7035683545
     H     2.6230885323   -0.0437273847   -0.9018821494
     N     0.2971872640   -2.2443886858   -0.1149261843
     H     1.2867224990   -2.5008108377   -0.1601235685
     H    -0.1021651888   -2.8720272970    0.5882560113
     H    -0.0931054885   -2.5640451381   -1.0055769171
     N    -2.2680915970   -0.2646611751   -0.0512980585
     H    -2.5195877312   -1.2533801298   -0.1290271540
     H    -2.8715074649    0.0986168542    0.6915756919
     H    -2.6211009298    0.1614365548   -0.9124366176
     N    -0.0053202592   -0.1712603163    2.5632133187
     H    -0.8500358690    0.1925288454    3.0133833846
     H     0.0701496276   -1.1374436702    2.8936097502
     H     0.7655861413    0.3223502100    3.0221276427
     C     0.0026145936    0.1306529804   -2.6484956317
     O     0.0048063441    0.1535747093   -3.7782099962
