34
-1.1666027705677284e+03 frame 133   xyz file generated by TeraChem
    Mn     0.0517446343   -0.0432271866    0.1550631543
     H     0.3428727989    5.2396661092   -0.8215796510
     H    -0.9375026294    4.7739239446   -1.9800382071
     C    -0.6024708166    4.7052867144   -0.9422124576
     N    -0.4082843643    3.3288841315   -0.6053496558
     C    -0.2515653140    2.2083503927   -0.3399828878
     H    -1.3577543451    5.1328110635   -0.2784652268
     H     5.0332803194    1.2386187094    1.6893177542
     H     5.4060214044   -0.2100861822    0.7089484762
     C     4.8777570647    0.7461934125    0.7264240337
     N     3.4785408690    0.5113559671    0.5418777714
     C     2.3413095068    0.3213683360    0.3935130352
     H     5.2422895630    1.3862899988   -0.0806394543
     H     1.2219328100   -4.9942493745    1.8699886554
     H    -0.1980598657   -5.3718256167    0.8506285028
     C     0.7657440959   -4.8583382084    0.8864807737
     N     0.5607142720   -3.4614284592    0.6551046056
     C     0.3933864934   -2.3258374010    0.4705944570
     H     1.4269306351   -5.2561747380    0.1128659864
     H    -5.0821214943   -1.6377175528   -0.1771242002
     H    -5.2796830951    0.1213692073   -0.4337576731
     C    -4.7325261006   -0.7718768253   -0.7444756868
     N    -3.3380933520   -0.5774483234   -0.4899739558
     C    -2.2055577460   -0.4159203777   -0.2842018719
     H    -4.8796070470   -0.9437750389   -1.8134635021
     H    -0.3823633716   -0.1459630888    5.5093111910
     H    -0.2296901784    1.6168608213    5.2486670741
     C    -0.7540317293    0.7093341018    4.9399441159
     N    -0.5169402479    0.4830530002    3.5477579712
     C    -0.3246753214    0.2998372504    2.4164495358
     H    -1.8277349883    0.8266255913    5.1050128491
     S     0.4079965206   -0.3633109116   -2.6759726604
     H     1.7168940514   -0.6435039723   -2.8459728024
     H     0.0121190726   -1.6273835243   -2.9327839421
