23
-4.6248674075788557e+02 frame 54   xyz file generated by TeraChem
    Mn    -0.0500245487    0.0634590031    0.0953561161
     N    -0.2189915097    2.4004429489    0.4210128116
     H    -1.0866431075    2.7735592532    0.8073389622
     H     0.5396189956    2.8519722015    0.9327648988
     H    -0.1650400604    2.7446488253   -0.5390311929
     N     2.2616644742    0.2426307820   -0.4225226858
     H     2.7700273318    1.1182715534   -0.2997652213
     H     2.9393419889   -0.5041404217   -0.2702926023
     H     1.9592112445    0.2054044572   -1.4057673922
     N     0.1452347725   -2.2542955896   -0.4299742846
     H     1.0329915911   -2.7461251371   -0.3283015683
     H    -0.5837618127   -2.9497637475   -0.2712417058
     H     0.0738892575   -1.9486437018   -1.4103003118
     N    -2.3778833216   -0.2576376527    0.4090294880
     H    -2.6219077258   -1.1602256353    0.8170709600
     H    -2.9528166596    0.4386316950    0.8840264981
     H    -2.6983649253   -0.2882963866   -0.5600810502
     N     0.3510192316   -0.2745400208    2.3782021825
     H    -0.3541219298    0.0722970899    3.0288103709
     H     0.4275098445   -1.2784725216    2.5438985968
     H     1.2413367028    0.1287345590    2.6709946764
     O    -0.0593709406    0.0778639335   -1.8748322313
     H    -0.5728399754    0.5443225563   -2.5452481843
