23
-2.4586733346216179e+03 frame 63   xyz file generated by TeraChem
    Mn    -0.3310367038   -0.0129493336   -0.5295245228
     P    -0.7345604217    2.6945123626   -0.0401852787
     H    -1.7575939629    3.0659980183    0.8657122102
     H     0.2217723580    3.6588654879    0.3521587207
     H    -1.2346870474    3.3673102435   -1.1742093783
     P     2.4610188815    0.2584637585    0.0127237338
     H     3.0203421874    1.4417820784    0.5454176909
     H     3.1013154783   -0.6417511954    0.9051978997
     H     3.3526617513    0.1028667262   -1.0690219081
     P     0.0153118073   -2.7474300233   -0.9080158112
     H     1.2069511528   -3.5171466698   -0.8886380064
     H    -0.7998802029   -3.6533309809   -0.1922001120
     H    -0.3992030542   -3.1040882233   -2.2095862416
     S    -2.7943451044   -0.4391954943   -0.8295564964
     C    -3.0000515306   -1.3595236014    0.5701047902
     N    -3.0891255967   -2.0024483763    1.5479033115
     P    -0.4692250392   -0.4003466271    2.3301892167
     H     0.5409598648    0.1903730751    3.1369478801
     H    -1.5773148544    0.1078160818    3.0393630043
     H    -0.4365127138   -1.6792687586    2.9261908491
     S     0.1345981885    0.4257054055   -2.9833238785
     C     1.1587182305    1.7052216544   -2.5975199645
     N     1.8538395489    2.5852952547   -2.2466359056
