39
-1.9446000764421883e+03 frame 59   xyz file generated by TeraChem
    Mn     0.0010447700   -0.0004006780   -0.0016452303
     O    -0.0223165905    2.4022694576   -0.3692845129
     C    -0.1996999112    3.0406765700   -1.5793291400
     C    -0.2521669293    4.3802935410   -1.3811422260
     C    -0.1005850727    4.5977922978    0.0335080600
     C     0.0336206576    3.3767654331    0.6062579174
     H    -0.2702280730    2.3880894279   -2.4346374351
     H    -0.3835653109    5.1318536705   -2.1470602337
     H     0.1744832070    3.0114424233    1.6108115128
     H    -0.0931073511    5.5468424757    0.5512434799
     O     2.4029123999   -0.0244375182   -0.3712846918
     C     3.3779409311    0.0265155969    0.6041094124
     C     4.5983301799   -0.1107470057    0.0307567890
     C     4.3799319589   -0.2590827095   -1.3840919906
     C     3.0404738350   -0.2017195490   -1.5818945983
     H     3.0132144642    0.1670005978    1.6089335326
     H     5.5475176410   -0.1074799002    0.5482925857
     H     2.3874550814   -0.2690071883   -2.4371450761
     H     5.1308332682   -0.3913979966   -2.1505067123
     O     0.0234772893   -2.4025893748    0.3644327550
     C     0.1990469719   -3.0414364780    1.5746332421
     C     0.2481585693   -4.3811689153    1.3765259881
     C     0.0961731909   -4.5983606548   -0.0381445553
     C    -0.0349116076   -3.3770624584   -0.6110174703
     H     0.2711862557   -2.3888837546    2.4298312987
     H     0.3775142201   -5.1330388696    2.1424929435
     H    -0.1747937651   -3.0114197147   -1.6155985798
     H     0.0863894425   -5.5474283055   -0.5558114870
     O    -2.4013841194    0.0230754384    0.3682703008
     C    -3.0390050082    0.2022004488    1.5785193197
     C    -4.3785447727    0.2579338093    1.3807020751
     C    -4.5968578635    0.1066528051   -0.0338492949
     C    -3.3763305425   -0.0307585701   -0.6069201632
     H    -2.3860316593    0.2714702851    2.4336412713
     H    -5.1295384608    0.3912697923    2.1468504815
     H    -3.0115397793   -0.1725475894   -1.6115361311
     H    -5.5460838055    0.1014557228   -0.5512975482
    Cl     0.3646899312    0.3624985831    2.3135361387
    Cl    -0.3630862820   -0.3625739692   -2.3171334075
