33
-1.2034413958942152e+03 frame 85   xyz file generated by TeraChem
    Mn     0.0798931623   -0.0908678801    0.0855036597
     H     1.9028797656    4.9623113717   -0.4255966903
     H     0.6675784956    4.9636964507   -1.7179235792
     C     0.8648096578    4.7245415897   -0.6700979896
     N     0.6408226539    3.3281225475   -0.4578141399
     C     0.4580241228    2.1929979251   -0.2848677247
     H     0.1921183986    5.2966844611   -0.0266722053
     H     5.2034841012   -0.3248487814    1.7493735783
     H     5.1218796065   -1.8625803346    0.8402918487
     C     4.9146293590   -0.7903853152    0.8040226900
     N     3.5144508356   -0.5903797987    0.5919585557
     C     2.3763535037   -0.4269236229    0.4191425878
     H     5.4699215054   -0.3336078331   -0.0187427370
     H    -0.4333041967   -5.1993252367    1.7360210812
     H    -1.7362100913   -5.1554561132    0.5124701294
     C    -0.6852860523   -4.9288212220    0.7078021412
     N    -0.4656454345   -3.5276355756    0.5243050728
     C    -0.2862705538   -2.3887090106    0.3742349182
     H    -0.0514149265   -5.4843859753    0.0124753486
     H    -5.3075176713   -0.0717851213   -0.0925967637
     H    -4.9932022144    1.6315165731   -0.5370716755
     C    -4.7383699024    0.5904101447   -0.7494286582
     N    -3.3411843653    0.3929376938   -0.5168935005
     C    -2.2055192994    0.2319768155   -0.3266155413
     H    -4.9640246083    0.3600443205   -1.7934637077
     H    -0.9501277474   -0.2359032944    5.3643272790
     H     0.3214184060    1.0211350893    5.3447143360
     C    -0.6187908550    0.6933984552    4.8947611561
     N    -0.4152998851    0.4657922230    3.4978448471
     C    -0.2499801128    0.2809461075    2.3620190864
     H    -1.3805590421    1.4659211411    5.0241997677
     C     0.4204521255   -0.4744237904   -2.2749217553
     S     0.6327855166   -0.7104587160   -3.7626758626
