50
-1.2218311528820618e+03 frame 93   xyz file generated by TeraChem
    Mn     0.0324980467    0.0314727783    0.1313218850
     O    -0.0037820190    2.2543082031    0.0538532353
     C     1.0687884052    3.0184830786   -0.5502321657
     C    -1.1698240647    3.0872346416    0.2709875020
     H    -1.9421552403    2.4510992167    0.6974866772
     H    -1.5098913819    3.5058047530   -0.6817616652
     H    -0.9166741666    3.8978806589    0.9606999723
     H     1.9296063509    2.3567650774   -0.6153352463
     H     1.3060468150    3.8789824148    0.0825733401
     H     0.7690959084    3.3611987906   -1.5457010715
     O     2.3146910504    0.0479388856    0.1369337598
     C     3.2089138267   -0.2016544451   -0.9758269141
     C     3.0726444766    0.4179554604    1.3179828474
     H     2.3543138663    0.5427404177    2.1239148554
     H     3.6156987291    1.3510836065    1.1378196221
     H     3.7809761485   -0.3790913712    1.5644848094
     H     2.6025831925   -0.4977755622   -1.8294693301
     H     3.9037054443   -1.0072619744   -0.7188917385
     H     3.7723440927    0.7063957664   -1.2139857053
     O     0.0504948651   -2.2397310713    0.1051855517
     C    -1.1139913027   -3.0661452975   -0.1408341596
     C     1.2400007707   -3.0538902666    0.2536342058
     H     2.0661214686   -2.3699510102    0.4363482434
     H     1.4159347875   -3.6259189112   -0.6629899499
     H     1.1192067297   -3.7403481364    1.0975995955
     H    -1.9594744029   -2.3914363584   -0.2585697965
     H    -1.2793967199   -3.7342353392    0.7104826245
     H    -0.9671525228   -3.6587224126   -1.0493963388
     O    -2.2731674743    0.0386626298    0.1812465882
     C    -3.1706157264    0.4523581068   -0.8760364157
     C    -3.0270511044   -0.3528415421    1.3561308889
     H    -2.3039078510   -0.6321005750    2.1183305716
     H    -3.6786757527   -1.1998075196    1.1189354413
     H    -3.6331952283    0.4893148068    1.7052460022
     H    -2.5674736874    0.8534315139   -1.6907434231
     H    -3.8463435074    1.2318738081   -0.5103421450
     H    -3.7560365031   -0.4037132452   -1.2267414839
     O     0.0415362172    0.0289502697    2.3845116589
     C    -0.1068745160    1.2138858794    3.2077807407
     C     0.1950094953   -1.1576473481    3.2034105111
     H     0.1853766163   -2.0060294816    2.5237398813
     H    -0.6364403888   -1.2307826507    3.9117125817
     H     1.1413683666   -1.1103905614    3.7507692344
     H    -0.0767972050    2.0679473197    2.5355633993
     H     0.7178588470    1.2728596217    3.9249341503
     H    -1.0598617133    1.1743315601    3.7439654244
     P    -0.1627959154   -0.3273996919   -2.6826431743
     H     0.8312824481   -1.0613250229   -3.3651770193
     H    -1.2747033907   -1.0813835877   -3.1169565490
     H    -0.2784316936    0.7411934559   -3.5991324044
