31
-2.5207668898171187e+03 frame 80   xyz file generated by TeraChem
    Mn     0.0007840573    0.0014839420    0.0511583874
     S     0.3806841066    2.6915411117    0.4809428429
     C     0.0266319402    3.0485439034    2.0834241093
     N    -0.2073655400    3.3177707209    3.2057143072
     S     2.7825581638   -0.4873224992    0.4032295605
     C     3.3150405380    0.1009199453    1.8798662432
     N     3.6940810012    0.4758684054    2.9312408372
     S    -0.3812120323   -2.6887644673   -0.3751343380
     C    -0.0257151710   -3.0485828826   -1.9766598083
     N     0.2094144876   -3.3198684365   -3.0982262673
     S    -2.7796998916    0.4950805189   -0.3071723658
     C    -3.3139430083   -0.1043399578   -1.7787445649
     N    -3.6938199180   -0.4862533424   -2.8272969149
     C    -1.5820616675   -0.7810445093    4.1045655524
     C    -1.6352813335   -0.8932798800    2.7433775899
     N    -0.4856846282   -0.3581499177    2.1924992425
     C     0.2543017345    0.0737440141    3.1998415722
     N    -0.3648795474   -0.1765874487    4.3769931165
     H    -0.0396226279    0.1583636633    5.2707097248
     H    -2.2711451333   -1.0656153482    4.8848454235
     H    -2.4102803902   -1.2917646510    2.1059180244
     H     1.2221348548    0.5486707740    3.1268449917
     C     1.5791026685    0.7860109386   -4.0042620893
     C     1.6332596868    0.8997041486   -2.6432123830
     N     0.4864482085    0.3604465216   -2.0906431092
     C    -0.2528339972   -0.0753870437   -3.0968109168
     N     0.3641553256    0.1762247147   -4.2748334750
     H     0.0389354616   -0.1602375152   -5.1679997714
     H     2.2661758719    1.0727060818   -4.7855390176
     H     2.4072812069    1.3020795710   -2.0070107355
     H    -1.2186860188   -0.5540791891   -3.0224113222
