46
-1.1919047655015065e+03 frame 49   xyz file generated by TeraChem
    Mn     0.0818115032    0.1621508470    0.0509767725
     C    -0.3079012233    3.4707358485    0.4785599992
     N    -0.1413004946    2.3420057869    0.2747358865
     C    -0.5164942311    4.8885427782    0.7308419188
     H    -1.1788648529    5.3084065428   -0.0335448529
     H     0.4427335855    5.4160181221    0.7046282115
     H    -0.9759208905    5.0262754218    1.7152634582
     C     3.3854210390   -0.0674781955   -0.5858694008
     N     2.2633788960   -0.0514760876   -0.2962710299
     C     4.7936245650   -0.0906548975   -0.9526159247
     H     5.1649280689    0.9340279767   -1.0590843115
     H     4.9200881062   -0.6177842909   -1.9040426659
     H     5.3740959709   -0.6023537771   -0.1779544797
     O    -0.0903488871   -2.1623017080    0.0066607806
     C     0.8660564147   -3.0742751598    0.4505118564
     C     0.3326053338   -4.3153342139    0.4842085248
     C    -1.0344059914   -4.2004234900    0.0445740684
     C    -1.2546730661   -2.8962315309   -0.2300454573
     H     1.8358954159   -2.6620010002    0.6758194016
     H     0.8435014767   -5.2208028571    0.7811123813
     H    -2.0973523482   -2.3263921304   -0.5847802587
     H    -1.7536294505   -5.0017389506   -0.0529195092
     O    -2.2084674937    0.1487227360   -0.0161469803
     C    -3.0701681479   -0.0141562697    1.0684890658
     C    -4.3514603607    0.0392763785    0.6443258315
     C    -4.3170022993    0.2464353857   -0.7811810601
     C    -3.0170258874    0.3083592420   -1.1444102617
     H    -2.5888899054   -0.1546986417    2.0226130038
     H    -5.2325626551   -0.0569941600    1.2634120270
     H    -2.4870121708    0.4497324860   -2.0719334064
     H    -5.1673390821    0.3366762121   -1.4428803572
     C     0.4765463422   -0.3519232649    3.3701286315
     N     0.3056683882   -0.1552635044    2.2408911407
     C     0.6889062464   -0.6002582054    4.7884919891
     H    -0.0693039005   -1.2969463102    5.1612436586
     H     0.6188180201    0.3394411455    5.3460345066
     H     1.6812039419   -1.0361505632    4.9445699682
     O     0.0468649080    0.1529811197   -2.2567484229
     C    -0.0197950591    1.2483860566   -3.1194329819
     C     0.1287321062    0.8326072660   -4.3963942609
     C     0.3021341111   -0.5971786494   -4.3579930115
     C     0.2498448589   -0.9701265932   -3.0607616881
     H    -0.1677654383    2.2025988499   -2.6403994331
     H     0.1173811124    1.4603954465   -5.2766025324
     H     0.3143441175   -1.9060072094   -2.5306694409
     H     0.4425917084   -1.2551390836   -5.2043480822
