37
-9.0003211226633289e+02 frame 126   xyz file generated by TeraChem
    Mn    -0.0071819552   -0.0020577448   -0.0121796856
     H     0.1750778720    5.3481337707   -0.6693635510
     H    -1.2570193338    4.9774550062   -1.6730067390
     C    -0.7830803024    4.8238671220   -0.7005715964
     N    -0.5596149768    3.4258733444   -0.5026748561
     C    -0.3781308995    2.2887451413   -0.3408113683
     H    -1.4353348728    5.1984960148    0.0919479249
     H     5.2878286788    1.0190049995    0.1134499942
     H     5.2628353037   -0.2645796710   -1.1305377481
     C     4.8157049297    0.6800557199   -0.8117790051
     N     3.4186179353    0.4836297683   -0.5812024405
     C     2.2821127197    0.3236955205   -0.3942321160
     H     4.9479248310    1.4334920545   -1.5919595067
     H     1.2339453635   -4.9823145135    1.6525358298
     H    -0.1965119865   -5.3513907757    0.6460622016
     C     0.7623813437   -4.8285672007    0.6789705523
     N     0.5415095581   -3.4303548312    0.4797539729
     C     0.3618242823   -2.2930739600    0.3169534092
     H     1.4157529401   -5.2047413655   -0.1118921486
     H    -4.9866831099   -1.6521973923    1.2547102241
     H    -5.2044580683    0.1134297065    1.4302990385
     C    -4.8322541908   -0.6808390180    0.7787869468
     N    -3.4343144274   -0.4857258044    0.5525196355
     C    -2.2972663444   -0.3264624952    0.3681881008
     H    -5.3581172913   -0.6505294269   -0.1785008244
     C     0.4977064586    0.5372137696    3.3404199468
     N     0.3295242928    0.3567534948    2.2086208709
     C     0.7083668220    0.7638689620    4.7640706953
     H    -0.2505652255    0.7384449007    5.2914508101
     H     1.1762609269    1.7409663360    4.9212293610
     H     1.3610040481   -0.0139744785    5.1732284144
     C    -0.5136038991   -0.5416242501   -3.3645802600
     N    -0.3440690538   -0.3613983562   -2.2329445418
     C    -0.7268369418   -0.7673246043   -4.7879450904
     H    -1.7993766929   -0.7852727006   -5.0063275978
     H    -0.2867484522   -1.7249065425   -5.0842510113
     H    -0.2582150915    0.0347530951   -5.3671340798
