31
-1.4332393364390507e+03 frame 100   xyz file generated by TeraChem
    Mn     0.1026028684   -0.1333873781    0.2593255357
     H     0.1827656199    5.0446474197   -0.9670495976
     H    -1.5057693860    4.6917222594   -1.4409783373
     C    -0.7597326022    4.5926143833   -0.6488275058
     N    -0.5426498001    3.2026436341   -0.3834832661
     C    -0.3613009876    2.0750315480   -0.1707765527
     H    -1.1168210019    5.0776807832    0.2628102219
     H     5.2647964784    1.2543015083    0.0672237539
     H     5.3866296563   -0.4181067806   -0.5570879728
     C     4.8622192907    0.5358545354   -0.6508390755
     N     3.4723039145    0.3330418518   -0.3783599565
     C     2.3425813516    0.1706391315   -0.1633314307
     H     4.9720697185    0.9226551333   -1.6669116874
     H     1.1002022345   -5.1287977822    1.7877003824
     H    -0.3995165972   -5.4275286994    0.8590258886
     C     0.5881048651   -4.9604284215    0.8372900912
     N     0.4335341770   -3.5516469143    0.6353247670
     C     0.3084458410   -2.4074653046    0.4782684185
     H     1.1789801997   -5.3752234895    0.0170940859
     S    -2.6517633294   -0.6340850615    0.7933672174
     H    -3.1584892265   -1.2803772701   -0.2771689328
     H    -3.3239734428    0.5083801427    0.5409595886
     H     0.6282539499    1.6211578736    5.2912417907
     H    -0.3990862863    0.1812864197    5.5623371929
     C     0.5088313871    0.5552407138    5.0828707307
     N     0.3992050671    0.3652530692    3.6688948918
     C     0.3037030097    0.2071730775    2.5223348906
     H     1.3782464735    0.0044747984    5.4497708259
     S    -0.1091482133   -0.3677755355   -2.5937704157
     H    -0.0286885814   -1.6766278669   -2.9115244359
     H    -1.4091905514   -0.2666464869   -2.9401960115
