49
-1.7260761382564494e+03 frame 138   xyz file generated by TeraChem
    Mn     0.0872495383    0.0252202203    0.0003426893
     C     1.4650650212    4.1638118532    1.0594457664
     C     1.2941796677    2.8259383837    1.2855652959
     N     0.5163648927    2.2720560924    0.2811956706
     C     0.2263135935    3.2688276215   -0.5462451245
     N     0.7784213373    4.4243344124   -0.1085694554
     H     0.7214355963    5.3139036911   -0.5856635770
     H     1.9986471506    4.9297847440    1.6003374195
     H     1.6902810916    2.2241929181    2.0890331835
     H    -0.3176932234    3.1870204752   -1.4781312896
     C     4.5430144402   -0.4806970416    0.0809895506
     C     3.3179404288   -0.2891012623   -0.4975660885
     N     2.3304789639   -0.3469002128    0.4712477615
     C     2.9547915134   -0.5687275452    1.6189322087
     N     4.2936115150   -0.6577486520    1.4272793807
     H     4.9857946112   -0.8243226768    2.1448459689
     H     5.5409646654   -0.5067147212   -0.3281543354
     H     3.0708160896   -0.1134732216   -1.5341699117
     H     2.4853821642   -0.6714103491    2.5860589848
     C     0.2190392420   -4.5006130527   -0.3420577076
     C     0.6606287586   -3.3242782672    0.1994259875
     N    -0.1784752882   -2.2888638982   -0.1742624756
     C    -1.1110378871   -2.8349532932   -0.9381789077
     N    -0.9108734833   -4.1683968491   -1.0615805296
     H    -1.4728151694   -4.8005189736   -1.6152303931
     H     0.5949260106   -5.5105853734   -0.2912119811
     H     1.5313353043   -3.1488166027    0.8126046687
     H    -1.9118982423   -2.3031494996   -1.4277011959
     C    -4.4188482376    0.1909315275    0.0478776033
     C    -3.1979701169   -0.1555225639    0.5578413253
     N    -2.1912641745    0.3117943301   -0.2720054250
     C    -2.8012137422    0.9343273352   -1.2736163177
     N    -4.1446875709    0.8843149041   -1.1139348694
     H    -4.8225106104    1.2869675320   -1.7469671868
     H    -5.4262609998    0.0137379018    0.3911378867
     H    -2.9762478126   -0.7131308547    1.4547960143
     H    -2.3177492235    1.4203072520   -2.1117345475
     C    -0.9612423136   -1.0299833114    4.2709561596
     C    -0.4729761380   -1.2966910869    3.0196685082
     N    -0.3549445164   -0.1200312443    2.2996933538
     C    -0.7749700893    0.8429293817    3.1058004896
     N    -1.1473293221    0.3373710896    4.3066379793
     H    -1.5042484767    0.8708202425    5.0880271971
     H    -1.1888633619   -1.6650047151    5.1131481482
     H    -0.2159007468   -2.2484998662    2.5810835969
     H    -0.8281157781    1.8913596757    2.8543231392
     S     0.5097478498   -0.1866251110   -2.6366800487
     C    -0.1368961125    1.2593619023   -3.1806013442
     N    -0.6445753787    2.2717342755   -3.5003733889
