18
-2.1935496607835198e+03 frame 170   xyz file generated by TeraChem
    Mn    -0.0716249795    0.0185308383    0.1666337883
     S     0.3468655819    2.7679668497   -0.2006892610
     H     0.0352470779    2.6816411372   -1.5112253903
     H    -0.8248593183    3.3449340368    0.1411527888
     S     2.6759487817   -0.4542666484   -0.2108890457
     H     3.2847547085    0.7504636616   -0.1997441260
     H     2.5666349433   -0.5007201019   -1.5553301569
     S    -0.4771912498   -2.7115115452    0.7118151124
     H    -0.7142204497   -2.9608637051   -0.5935067015
     H     0.7515281927   -3.2710084663    0.6932116030
     S    -2.7791472297    0.5021339741    0.6663210364
     H    -3.2463020390   -0.1236925678   -0.4337478302
     H    -3.2350223698   -0.4313310308    1.5281560543
     S     0.3178790013    0.4194979494    2.8628083412
     H     1.0895789090   -0.6193025917    3.2461190636
     H     1.3268405261    1.3139698656    2.9235793718
     C    -0.4275171717   -0.2752235260   -1.8432127060
     N    -0.6198276927   -0.4518381106   -2.9830655147
