63
-1.4068341951752286e+03 frame 40   xyz file generated by TeraChem
    Mn     0.0558963341    0.0015187345    0.0688194626
     C    -0.0408440872    5.1304529708   -0.0727449480
     C     1.1698728302    4.4414494038    0.0085034628
     C     1.1505500691    3.0508868974    0.0363025370
     N     0.0100739471    2.3274875252   -0.0123133175
     C    -1.1557084277    3.0073006276   -0.0901490321
     C    -1.2265582697    4.3955004964   -0.1225691450
     H    -0.0603197525    6.2157324502   -0.0973127008
     H     2.1172146353    4.9686584936    0.0490425095
     H     2.0664772435    2.4755213361    0.0979309291
     H    -2.0475468778    2.3945880683   -0.1302201177
     H    -2.1919443842    4.8865670957   -0.1861930246
     C     5.1929600549    0.0114489249    0.0352535868
     C     4.4897614691   -0.1023187099    1.2355554542
     C     3.0991850421   -0.1032038837    1.2005824072
     N     2.3910712268    0.0022575405    0.0542530709
     C     3.0834904266    0.1126722536   -1.1010243264
     C     4.4730508099    0.1209483931   -1.1556999823
     H     6.2786970535    0.0150406294    0.0279935283
     H     5.0062495853   -0.1884340515    2.1857732758
     H     2.5122917665   -0.1875697656    2.1081738778
     H     2.4800101141    0.1957207038   -1.9971130200
     H     4.9764878377    0.2110178681   -2.1125749359
     C    -0.0490973904   -5.1326039143   -0.0354422313
     C    -1.2344060645   -4.3962656102   -0.0096554533
     C    -1.1604306906   -3.0076954198    0.0123873231
     N     0.0082573258   -2.3294077958    0.0090262844
     C     1.1491184395   -3.0545076398   -0.0132162791
     C     1.1654440798   -4.4448851125   -0.0358118102
     H    -0.0712412032   -6.2179464170   -0.0541758490
     H    -2.2023697698   -4.8864024032   -0.0063924860
     H    -2.0524912740   -2.3947458651    0.0390283625
     H     2.0674553935   -2.4793820035   -0.0148454992
     H     2.1128466418   -4.9732348954   -0.0539202755
     O    -2.3192890261    0.0037678421   -0.0104524790
     C    -3.0794309846   -0.1583333495   -1.2261587139
     C    -3.1946552933    0.1891412403    1.1227478395
     H    -2.5708071733    0.2872033389    2.0095806610
     H    -3.8592025293   -0.6758878755    1.2286220759
     H    -3.7989430993    1.0929263089    0.9857701629
     H    -2.3562421795   -0.2827820433   -2.0290544872
     H    -3.6955859755    0.7294608622   -1.4081655049
     H    -3.7266741136   -1.0393446055   -1.1553687167
     C    -0.1629609661    0.0043881382    5.1945434790
     C    -0.0667863002    1.2020089314    4.4843314507
     C    -0.0117416368    1.1555698596    3.0955368335
     N    -0.0480087131    0.0008793695    2.3931971429
     C    -0.1401543179   -1.1518588118    3.0929840902
     C    -0.1993819869   -1.1948891098    4.4818075629
     H    -0.2085169781    0.0057626978    6.2793363584
     H    -0.0351259813    2.1591441453    4.9942189658
     H     0.0614924123    2.0606629206    2.5043013061
     H    -0.1636396073   -2.0583296202    2.5001502341
     H    -0.2721537910   -2.1508837564    4.9895874517
     O     0.0550275756   -0.0100669371   -2.3197098025
     C    -0.1534555020    1.1495930925   -3.1556231015
     C     0.2558578134   -1.1857983949   -3.1346966071
     H     0.3881937293   -2.0290634685   -2.4602522337
     H     1.1449683979   -1.0586266812   -3.7619470970
     H    -0.6176999407   -1.3534725837   -3.7747480166
     H    -0.2565411243    2.0105513740   -2.4985420099
     H    -1.0596849427    1.0204804885   -3.7574024298
     H     0.7057155885    1.2900391906   -3.8211949701
