40
-1.8116761100262277e+03 frame 89   xyz file generated by TeraChem
    Mn     0.2280453597    0.3849604717    0.1706876203
     C     0.9900253040    4.6594190954    0.6242870424
     C     1.3380013689    3.3547913332    0.4124243073
     N     0.2044535959    2.5545959002    0.4871874925
     C    -0.8113179343    3.3776013361    0.7414991354
     N    -0.3733050765    4.6496834051    0.8312148059
     H    -0.9509881655    5.4613625584    1.0167612841
     H     1.5712007183    5.5685937154    0.6457823463
     H     2.3111172838    2.9357545744    0.2090693615
     H    -1.8458194574    3.0966930459    0.8700491615
     C     4.6118125552   -0.0769657660   -0.2244814936
     C     3.3715004309    0.1718408169   -0.7418291800
     N     2.4190704982    0.0891368204    0.2659696801
     C     3.0897718213   -0.2069643337    1.3786663583
     N     4.4087869916   -0.3137583755    1.1182707580
     H     5.1286003109   -0.5327040165    1.7969476839
     H     5.5913388300   -0.1069620707   -0.6767402953
     H     3.1041403944    0.4016055983   -1.7612806039
     H     2.6647810180   -0.3441108473    2.3613337523
     P     0.3379318257   -2.4543569182   -0.8167014711
     H     1.3160369099   -2.6292834071   -1.8223318849
     H     0.8105140219   -3.4714738725    0.0469200846
     H    -0.6802397762   -3.2186994115   -1.4353320013
     P    -2.6337197965    0.0164497282   -0.2293853703
     H    -3.1838156577   -1.1573503156    0.3344883729
     H    -3.5835013415    0.9194477230    0.3046516864
     H    -3.2183547404   -0.1129829050   -1.5104650638
     C    -0.2925173612    0.0433118811    4.5201478077
     C     0.0423781624    0.6738230255    3.3538005996
     N    -0.1457693201   -0.1938614160    2.2847057786
     C    -0.5927414604   -1.3314637097    2.8125168529
     N    -0.6926052843   -1.2239741428    4.1531771618
     H    -1.0121508792   -1.9514846407    4.7822506366
     H    -0.2867023923    0.3723249733    5.5480952160
     H     0.4021171977    1.6809343966    3.2106936276
     H    -0.8460643228   -2.2283073400    2.2677933486
     P     0.1670896808    1.0152275357   -2.6821295004
     H     1.2356768857    1.7167840793   -3.2871848179
     H    -0.0331757326    0.0699143407   -3.7149068647
     H    -0.8596371045    1.9111267026   -3.0578031409
