47
-1.6952660163804512e+03 frame 88   xyz file generated by TeraChem
    Mn    -0.1280272799    0.0855568240    0.1125631865
     C     1.3440282633    4.3682486020    0.3526924802
     C     1.5645174746    3.0193940166    0.2854848495
     N     0.3838079649    2.3365827708    0.5163420038
     C    -0.5387029563    3.2633480419    0.7156853678
     N    -0.0009391984    4.5050593363    0.6298535919
     H    -0.5044958571    5.3762905237    0.7231336891
     H     1.9960854201    5.2181975946    0.2243830232
     H     2.4818665825    2.4957506837    0.0655799455
     H    -1.5838752821    3.0813278016    0.9134773840
     C     4.0599318726   -0.4562709961   -1.3435278447
     C     2.7786788333    0.0228796334   -1.3779931406
     N     2.1436662325   -0.2595503114   -0.1798664812
     C     3.0277361615   -0.9075652518    0.5611782515
     N     4.2020472505   -1.0457227719   -0.1019386840
     H     5.0293098984   -1.5102658584    0.2461240863
     H     4.8599550877   -0.4394213507   -2.0672549107
     H     2.2493603265    0.5262458730   -2.1735679773
     H     2.8613613873   -1.2900011723    1.5571639665
     C    -0.3858132869   -4.4635186477   -0.1052063234
     C    -0.1548985908   -3.3266301315    0.6198246001
     N    -0.4446921177   -2.2103683238   -0.1449719071
     C    -0.8389292507   -2.6693464883   -1.3237888973
     N    -0.8216129654   -4.0241620820   -1.3389806226
     H    -1.0719555694   -4.6057607466   -2.1266491920
     H    -0.2845114828   -5.5109553569    0.1331823073
     H     0.2032911710   -3.2412274470    1.6342664774
     H    -1.1044907798   -2.0507459863   -2.1694809403
     C    -4.4433218616    0.7940785759    1.4322086244
     C    -3.1277270647    0.5833610996    1.7442842823
     N    -2.3735664015    0.5155240844    0.5853212611
     C    -3.2256374030    0.6837321995   -0.4169466902
     N    -4.4847771019    0.8549118859    0.0532248052
     H    -5.3090971588    0.9980483771   -0.5139998703
     H    -5.3270195060    0.9001301455    2.0422821933
     H    -2.6750310753    0.4736779208    2.7178547912
     H    -2.9506764696    0.6975826036   -1.4627826351
     C    -0.1193835111   -0.8899452954    4.5696536584
     C    -0.5070456835   -1.1171888881    3.2760424288
     N     0.1562134029   -0.2509756936    2.4247818235
     C     0.9323045706    0.4922168322    3.1965058666
     N     0.8001167561    0.1368865832    4.4992611936
     H     1.2792759709    0.5622343001    5.2813240946
     H    -0.4027202474   -1.3479943876    5.5046808223
     H    -1.2225338467   -1.8328841554    2.9000870053
     H     1.5777901112    1.2885923193    2.8577973774
    Cl    -0.5201726798    0.4915964004   -2.3050461678
