19
-8.8499585134936956e+02 frame 64   xyz file generated by TeraChem
    Mn     0.0030103939    0.0437284211    0.0528981939
     O     0.1334310633    2.2344847105    0.3295680284
     H     0.4117130966    2.8678474132   -0.3559496612
     H     0.1886136226    2.7064269175    1.1793655498
     O     2.1137198219   -0.3110457228    0.5070352143
     H     2.5148155067   -1.1873318265    0.3712826725
     H     2.8456263389    0.3273717995    0.5680700880
     O    -0.1384250737   -2.1323429188   -0.2337512791
     H    -0.2395895799   -2.6615217059   -1.0436665052
     H    -0.3990960117   -2.7014342269    0.5115939284
     O    -2.1557261584    0.4095970127   -0.0880758305
     H    -2.8738065560   -0.1719989409   -0.3924699068
     H    -2.4874597537    1.3227531498   -0.1445601518
     O    -0.3551852024   -0.4081364956    2.1500033374
     H    -1.1965538442   -0.2817831674    2.6221698128
     H     0.3443282236   -0.4940036538    2.8208069799
     S     0.4717470784    0.6116436859   -2.6276503559
     H     1.4172618270   -0.2227422223   -3.1063240933
     H    -0.5280354725    0.1085431129   -3.3805428387
