41
-1.5960964681079518e+03 frame 33   xyz file generated by TeraChem
    Mn     0.0498274091   -0.0176579882    0.1576744360
     O     0.0163772334    2.2421648681    0.1455948263
     C     1.0738329359    3.0161317121   -0.4668620842
     C    -1.1501922353    3.0577377478    0.4027284094
     H    -1.8879560870    2.4250337784    0.8961658374
     H    -1.5558515875    3.4439516142   -0.5381798795
     H    -0.8799642319    3.8909971068    1.0585748675
     H     1.9350017211    2.3562064454   -0.5560077777
     H     1.3218302814    3.8697396527    0.1716277778
     H     0.7581571143    3.3729211385   -1.4527479096
     O     2.2846730494   -0.0106377212    0.1123526959
     C     3.0790876338   -0.2767164613   -1.0680472922
     C     3.1230989822    0.2595301105    1.2633130546
     H     2.4620274443    0.3023405731    2.1260656841
     H     3.6510626374    1.2089007160    1.1294656160
     H     3.8481923631   -0.5510931236    1.3858207267
     H     2.3875924928   -0.4900491344   -1.8830983275
     H     3.7245116191   -1.1422423971   -0.8910245899
     H     3.6900410858    0.5976260712   -1.3138635335
     O     0.1249150587   -2.2617442048    0.0778204831
     C    -0.7877120632   -3.0635517832   -0.7050579809
     C     1.2730086275   -3.0423759519    0.4886345761
     H     1.9248080798   -2.3822369125    1.0570644887
     H     1.7998443695   -3.4232029951   -0.3922563363
     H     0.9450629550   -3.8794620198    1.1127684106
     H    -1.6068847211   -2.4183453544   -1.0243539044
     H    -1.1800820312   -3.8812518461   -0.0922426481
     H    -0.2741188300   -3.4734425776   -1.5810862768
     C    -2.3287620570   -0.2466363050    0.4587166262
     S    -3.8117241821   -0.4093130932    0.7454156664
     O     0.0413714172    0.0183300146    2.4229703286
     C     0.1817605068    1.2052994951    3.2402689917
     C    -0.2583081265   -1.1402557352    3.2371498011
     H    -0.3741206432   -1.9861940290    2.5615933430
     H    -1.1835887445   -0.9742844680    3.7983949164
     H     0.5655277556   -1.3236210311    3.9344058282
     H     0.4018818414    2.0283169882    2.5632971286
     H     0.9989260073    1.0704789055    3.9563614335
     H    -0.7506976524    1.3969926064    3.7813133386
     C    -0.2824690153    0.1768562180   -2.1937798343
     S    -0.5905600745    0.3772248246   -3.6668645109
