34
-8.2341916544223545e+02 frame 100   xyz file generated by TeraChem
    Mn    -0.0025859274    0.0014551207   -0.0690900294
     H     0.2839529817    5.4025269396   -0.1477221656
     H    -1.0789968712    5.0241775889   -1.2349369764
     C    -0.6797724364    4.8924534011   -0.2256561565
     N    -0.5055038050    3.5040532694    0.0367976196
     C    -0.3606729079    2.3577396133    0.2074172431
     H    -1.3755895808    5.3199440342    0.5009851270
     H     5.3203592819    1.1968856278    0.8789734960
     H     5.4139691749   -0.0193059307   -0.4237585975
     C     4.9010840389    0.8828145100   -0.0803301450
     N     3.5115810557    0.6089672339    0.0726775755
     C     2.3704809866    0.3882200242    0.1786880583
     H     5.0355847595    1.6796029967   -0.8164613745
     H     1.4593348478   -5.2936688674    0.3835825181
     H    -0.2722492155   -5.4188067675   -0.0248748038
     C     0.6594202565   -4.8900787195   -0.2426522649
     N     0.4932093580   -3.5022665784    0.0283236710
     C     0.3534296203   -2.3561754720    0.2047896933
     H     0.9165078690   -5.0262401318   -1.2965661854
     H    -5.1426847425   -1.8182032780    0.5092283949
     H    -5.4863183044   -0.0709778107    0.3931162301
     C    -4.9057264625   -0.8960232849   -0.0275910276
     N    -3.5153838989   -0.6145479432    0.1021907404
     C    -2.3740101227   -0.3877247923    0.1908017507
     H    -5.1553017797   -1.0153369039   -1.0851185783
     H     0.2826156549   -0.9873968397    5.4319149599
     H     0.7576500924    0.7324325225    5.4237414423
     C     0.0213057377    0.0085720470    5.0648956275
     N     0.0112797843    0.0047755863    3.6403068201
     C     0.0036896997    0.0018587994    2.4718410851
     H    -0.9689317175    0.2840691790    5.4370078800
     N    -0.0029007136    0.0004821085   -2.0145930398
     H    -0.8027742804    0.1773923968   -2.6171186786
     H     0.7964564333   -0.1783437784   -2.6172371255
