40
-9.2225938607416128e+02 frame 160   xyz file generated by TeraChem
    Mn     0.0281936242    0.0223325270   -0.0396427203
     H     0.2759551919    5.3043523261    0.9748291888
     H    -0.9940272024    5.3308580884   -0.2832979786
     C    -0.6673927537    4.8608134075    0.6474697616
     N    -0.4740602015    3.4613873579    0.4227958741
     C    -0.3164700300    2.3241230931    0.2389395964
     H    -1.4291398021    4.9974262209    1.4187266412
     H     5.0137041349    1.2295736965    1.5685818397
     H     5.3806266150   -0.2021770565    0.5623974405
     C     4.8613698825    0.7586658853    0.5944706106
     N     3.4619791682    0.5418183203    0.3928899653
     C     2.3246078777    0.3658861452    0.2282943845
     H     5.2398564837    1.4111820435   -0.1960191064
     H     0.9506200676   -5.2778904951    0.4068604951
     H    -0.3082658614   -5.2915126906   -0.8633422563
     C     0.6456566749   -4.8574790092   -0.5543867157
     N     0.4941270679   -3.4414801927   -0.4199134031
     C     0.3674692073   -2.2903756418   -0.3126176355
     H     1.4083470639   -5.0662564273   -1.3084430908
     H    -5.1734042552   -1.4068424177    0.0783410385
     H    -5.3440384251    0.2034121684   -0.6787874266
     C    -4.8089895844   -0.7486334953   -0.7139830360
     N    -3.4124993517   -0.5089105174   -0.5191696788
     C    -2.2764173928   -0.3152436137   -0.3633890201
     H    -4.9589936603   -1.2219229586   -1.6873210422
     H    -1.0732196173   -1.6583419123    4.9664385592
     H     0.3683009046   -0.6570461496    5.3068933983
     C    -0.6030752002   -0.6849266772    4.8073549305
     N    -0.4153043499   -0.4786852559    3.4047969121
     C    -0.2638271204   -0.3114077295    2.2641492992
     H    -1.2455526710    0.1055252568    5.2026619429
     O     0.1319731375    0.1598934957   -2.3086256569
     C     1.2013477251   -0.4125618177   -3.0825264419
     C    -0.5727676513    1.1716232124   -3.0490816846
     H    -1.3738054835    1.5454296899   -2.4105479617
     H    -1.0005228967    0.7362803972   -3.9584928610
     H     0.1049021210    1.9905018656   -3.3170114206
     H     1.6827459570   -1.1698787511   -2.4633957107
     H     1.9282206991    0.3591724170   -3.3608394042
     H     0.7960954465   -0.8792242468   -3.9867002294
