16
-2.6102929836461840e+03 frame 70   xyz file generated by TeraChem
    Mn     0.0551963876    0.1247123569    0.0450564286
     C    -0.3489904012    2.3810409588   -0.2376840440
     S    -0.5352441282    3.8762184523   -0.3953723567
     C     2.3428215898    0.4740110128   -0.3062977048
     S     3.8124129310    0.7342270918   -0.5696948038
     C     0.3338798190   -2.1437327487    0.3582905285
     S     0.5463503301   -3.6272180182    0.5875991997
     S    -2.6570645475   -0.3043652088    0.6245042142
     H    -3.1038300876   -1.2200597784   -0.2604458207
     H    -3.3592977517    0.7145301425    0.0860057822
     S     0.4111979170    0.6494155011    2.7609924602
     H    -0.5409378712   -0.0855026418    3.3749250389
     H     1.4228429230   -0.1625744852    3.1346658643
     S    -0.0846396085   -0.0559692669   -2.7618025082
     H     0.0316940290   -1.3644368571   -3.0722566580
     H    -1.3941299285    0.0062602558   -3.0827827470
