25
-5.5881339375485447e+02 frame 63   xyz file generated by TeraChem
    Mn     0.2705473640    0.0054604688    0.1756282593
     N    -0.0548864487    2.2174347808   -0.1171745790
     H    -1.0481763250    2.4222145169    0.0125671499
     H     0.4469736967    2.8660587346    0.4938933607
     H     0.1650268595    2.5098272255   -1.0717794549
     N     2.5035465310    0.0136359939   -0.1297445492
     H     3.0067764804    0.8322037287    0.2212769171
     H     3.0137829368   -0.7933574750    0.2375907470
     H     2.6591041426    0.0047896528   -1.1413391165
     N    -0.0289147189   -2.2082487389   -0.1372993799
     H     0.4189152297   -2.8550001697    0.5162461416
     H    -1.0290988545   -2.4156674306   -0.0956516590
     H     0.2740439536   -2.5017784659   -1.0686034223
     C    -3.4427632463   -0.0381086815    0.1409671279
     O    -2.2217454779    0.0130497021    0.1977615643
     H    -3.9631915881   -0.8959913821   -0.3146745858
     H    -4.0703431233    0.7723454165    0.5451950469
     N    -0.0026350408    0.0076579881    2.4187969660
     H    -1.0018506491    0.0596000935    2.6322189124
     H     0.3399844977   -0.8224335435    2.9092279207
     H     0.4233107439    0.7992753763    2.9075010186
     C    -0.1433562250    0.0128610899   -3.4097746943
     O     0.2800225756    0.0054399139   -2.2614816635
     H     0.5452274737   -0.0210647773   -4.2681220331
     H    -1.2230345970    0.0536780473   -3.6260278005
