40
-9.9741460005426438e+02 frame 70   xyz file generated by TeraChem
    Mn    -0.0472403852   -0.0445502549    0.3422651112
     C    -0.5098852937    3.2947060818   -0.1143955949
     N    -0.3890873663    2.1518191726    0.0289319122
     C    -0.6624003531    4.7311794188   -0.3002443301
     H    -0.4902359557    4.9903819675   -1.3499604147
     H     0.0616534707    5.2663223341    0.3225674918
     H    -1.6735961214    5.0395880330   -0.0159882617
     C     3.2731611553    0.5110113278   -0.1550541221
     N     2.1495311946    0.2958870886    0.0245726037
     C     4.6857805404    0.7795829696   -0.3866762723
     H     4.9168598766    1.8162314836   -0.1214857430
     H     4.9253565779    0.6204294365   -1.4430602407
     H     5.2988441255    0.1095031083    0.2245397747
     C     0.3976549795   -3.3924379413    0.0985001587
     N     0.2807039697   -2.2424516359    0.1712538805
     C     0.5438903319   -4.8380230125    0.0033129084
     H     1.5687877987   -5.1274930376    0.2568911149
     H     0.3197801640   -5.1678696700   -1.0164028201
     H    -0.1470087115   -5.3280359425    0.6970246993
     C    -3.3661285024   -0.6165328177    0.0295292543
     N    -2.2345454648   -0.3970854511    0.1419755316
     C    -4.7886528106   -0.8920113067   -0.1133017532
     H    -5.0495073129   -1.7989313049    0.4417384319
     H    -5.0353476457   -1.0365440232   -1.1702120670
     H    -5.3722642367   -0.0532513169    0.2797195863
     C     0.2496830197    0.2929038693    3.6808483038
     N     0.1442282493    0.1766962955    2.5332179510
     C     0.3811937759    0.4371214902    5.1234291093
     H    -0.5242402876    0.0696567395    5.6173206072
     H     0.5265113495    1.4912571723    5.3808972875
     H     1.2413498296   -0.1400371965    5.4780234107
     O    -0.0587735012   -0.0723575448   -2.1038556039
     C     0.7718813530   -0.8199833607   -2.9231835093
     C     0.4621572753   -0.6001608918   -4.2222354357
     C    -0.6283806084    0.3384723401   -4.2353446176
     C    -0.9091607817    0.6284586556   -2.9434915692
     H     1.5027172043   -1.4271758649   -2.4147421375
     H     0.9448804416   -1.0466034454   -5.0803647263
     H    -1.6297835608    1.2621162240   -2.4533548049
     H    -1.1304679798    0.7381738415   -5.1053219982
