52
-1.2467756079121723e+03 frame 39   xyz file generated by TeraChem
    Mn    -0.2126577335   -0.0014175018   -0.0207381076
     C     0.1458135264    3.3924950855   -0.5229254975
     N     0.0100225287    2.2482467479   -0.4015342604
     C     0.3146704885    4.8318386609   -0.6768490962
     H     0.0856809012    5.1274953449   -1.7056697770
     H     1.3467669923    5.1135228014   -0.4452226732
     H    -0.3591259504    5.3612583480    0.0044271816
     C     3.3797671816    0.0065090347   -0.0241493808
     N     2.2208402975    0.0017656892   -0.0203651032
     C     4.8383103851    0.0123091546   -0.0297519566
     H     5.2081972489    1.0157148757   -0.2629619396
     H     5.2130522320   -0.6890078698   -0.7819537712
     H     5.2180232780   -0.2842309251    0.9530775130
     C     0.1623784150   -3.3928840856    0.4802227638
     N     0.0151619712   -2.2500202739    0.3591332244
     C     0.3471995781   -4.8303043753    0.6333502423
     H     1.4153391905   -5.0691206400    0.6512375742
     H    -0.1208302177   -5.3579051371   -0.2038796158
     H    -0.1094963846   -5.1691644679    1.5687665036
     C    -5.2627506273   -0.0049171596   -0.0210968092
     C    -4.5529486518    0.8404710475   -0.8752625744
     C    -3.1629856504    0.8091601507   -0.8443468662
     N    -2.4675025164   -0.0027461613   -0.0207616935
     C    -3.1619357748   -0.8157235148    0.8026816895
     C    -4.5518394972   -0.8491953933    0.8332665868
     H    -6.3485457139   -0.0057952423   -0.0212382814
     H    -5.0647927690    1.5125949201   -1.5558250695
     H    -2.5745084841    1.4462655535   -1.4973208400
     H    -2.5726418978   -1.4518964596    1.4558180778
     H    -5.0628280158   -1.5221319014    1.5136635185
     C     0.0196840733    0.9333100231    4.9642231572
     C     0.9340067589    0.0676144786    4.3630773857
     C     0.8300725532   -0.1727741929    2.9970252225
     N    -0.1176683312    0.3916005383    2.2225175257
     C    -0.9966722904    1.2271834888    2.8125864374
     C    -0.9643010850    1.5243527586    4.1709181455
     H     0.0724246501    1.1425539188    6.0283513626
     H     1.7152800559   -0.4156903036    4.9403017640
     H     1.5244326399   -0.8359000451    2.4919503451
     H    -1.7519837354    1.6633028935    2.1662912340
     H    -1.6977509500    2.2026154235    4.5941072947
     C     0.0189821683   -0.9351686722   -5.0060491827
     C     0.9331651236   -0.0691207073   -4.4051952047
     C     0.8299129696    0.1708333558   -3.0390005950
     N    -0.1170074298   -0.3943872967   -2.2640750201
     C    -0.9958258733   -1.2304074333   -2.8538482114
     C    -0.9641230882   -1.5271080636   -4.2123098754
     H     0.0711732330   -1.1440302107   -6.0702805639
     H     1.7138909370    0.4147725341   -4.9826729199
     H     1.5243506988    0.8340417839   -2.5341865646
     H    -1.7504001604   -1.6673126961   -2.2072148269
     H    -1.6974299102   -2.2056903824   -4.6352415254
