37
-2.2296980754417245e+03 frame 60   xyz file generated by TeraChem
    Mn    -0.0470240842    0.0025330287    0.1464744706
    Cl    -0.4806160112    2.5311785134   -0.2739810490
    Cl     2.3703157725    0.2874012966    0.5194294392
    Cl    -0.4185353777   -2.5154104557    0.4671374274
     C    -5.4925291167   -0.1299411089   -0.6133278786
     C    -4.7602807574    1.0147517350   -0.9227449017
     C    -3.3791603812    1.0098497939   -0.7158136251
     N    -2.7153708507   -0.0549869285   -0.2367605392
     C    -3.4263920258   -1.1560724777    0.0559026110
     C    -4.8101137527   -1.2368011696   -0.1114502924
     H    -6.5705628681   -0.1586135216   -0.7592305866
     H    -5.2431203549    1.9054808327   -1.3157579513
     H    -2.7615190213    1.8818792308   -0.9152579761
     H    -2.8404414924   -1.9948237708    0.4224938695
     H    -5.3322990361   -2.1544099109    0.1460999908
     C    -0.5423590937    0.7334223632    5.2460546770
     C    -0.5102685557   -0.5594160324    4.7262235978
     C    -0.4693555927   -0.7287708190    3.3422060287
     N    -0.4624994251    0.3060310316    2.4873213930
     C    -0.4871715787    1.5516700785    2.9882494776
     C    -0.5301724103    1.8081727361    4.3589104722
     H    -0.5719696161    0.9000977094    6.3208940355
     H    -0.5118654613   -1.4305130301    5.3754907095
     H    -0.4378518699   -1.7134291108    2.8833420280
     H    -0.4666348318    2.3511201665    2.2522260001
     H    -0.5481517923    2.8348401981    4.7135699565
     C     1.0042879756   -0.6277660383   -4.8241644838
     C     1.2202811467    0.5894784890   -4.1796164200
     C     0.8444571755    0.7213539679   -2.8431754609
     N     0.2789805815   -0.2831824315   -2.1551134019
     C     0.0805518409   -1.4578998090   -2.7711492793
     C     0.4237416397   -1.6720209753   -4.1060040290
     H     1.2877565106   -0.7615284388   -5.8660117735
     H     1.6761843762    1.4293300521   -4.6958772385
     H     0.9805116669    1.6469140262   -2.2914431167
     H    -0.3499762361   -2.2387630990   -2.1500985949
     H     0.2431474787   -2.6412201835   -4.5623525769
