49
-1.3233612799068851e+03 frame 57   xyz file generated by TeraChem
    Mn    -0.0083019250   -0.0221393686   -0.0130877339
     C     0.7537624174    4.9301703417    0.7837314562
     C     1.5615747925    3.9740076352    1.4013779048
     C     1.3191372520    2.6286147369    1.1489033114
     N     0.3263634958    2.1974880933    0.3390336121
     C    -0.4522847927    3.1327357067   -0.2490311866
     C    -0.2708472871    4.4981455035   -0.0599448635
     H     0.9192962278    5.9892966688    0.9559270648
     H     2.3691299960    4.2617329771    2.0662101966
     H     1.9422154123    1.8620678854    1.6000912083
     H    -1.2523524738    2.7678247874   -0.8862610033
     H    -0.9228289394    5.2042105507   -0.5632512959
     C     4.9757924189   -0.6030436558   -0.7447090682
     C     4.2759284064   -1.4701341410    0.0959762174
     C     2.9095366155   -1.2795096955    0.2672232164
     N     2.2236580155   -0.2822129112   -0.3347014049
     C     2.9136665899    0.5554722966   -1.1405354118
     C     4.2778751773    0.4277322844   -1.3761966837
     H     6.0425938317   -0.7274178377   -0.9037245635
     H     4.7761411233   -2.2839944027    0.6101483752
     H     2.3356735603   -1.9497948341    0.9003521670
     H     2.3481921846    1.3610044070   -1.5994202891
     H     4.7791440845    1.1258043380   -2.0382756259
     C    -0.7400078567   -4.9623684770   -0.8202758603
     C    -1.4008469652   -4.3074124472    0.2202389494
     C    -1.1757813055   -2.9482444065    0.4059673033
     N    -0.3354108204   -2.2283348987   -0.3705566568
     C     0.3026076630   -2.8743925883   -1.3723141268
     C     0.1261442211   -4.2284183847   -1.6325361561
     H    -0.8967370800   -6.0224870775   -0.9946417792
     H    -2.0821221107   -4.8368344515    0.8778504737
     H    -1.6876962544   -2.4056549618    1.1947635057
     H     0.9818652781   -2.2796459104   -1.9758143387
     H     0.6593219138   -4.6943821384   -2.4544283600
     C    -4.9657526944    0.6794105988    0.7979479277
     C    -4.5212059983   -0.0807211325   -0.2850309317
     C    -3.1538543248   -0.2570994532   -0.4630163067
     N    -2.2270631443    0.2832436010    0.3600543255
     C    -2.6699952884    1.0215134452    1.4020620986
     C    -4.0192336344    1.2378892857    1.6584557464
     H    -6.0270545493    0.8329026430    0.9678885046
     H    -5.2191780760   -0.5334538612   -0.9813026795
     H    -2.7794438277   -0.8589462902   -1.2857441680
     H    -1.9108779952    1.4578021067    2.0442283061
     H    -4.3170419466    1.8342679237    2.5143318893
     C     0.3292792960   -0.4665774823    2.5056844756
     O     0.4669603855   -0.6854671509    3.6053476042
     C    -0.3724600135    0.4196228868   -2.5113626064
     O    -0.5495360455    0.6133147889   -3.6099693664
