37
-1.0228426062778733e+03 frame 78   xyz file generated by TeraChem
    Mn    -0.0908308448   -0.0846840743   -0.0704903778
     O    -0.0849070009    2.1916483816   -0.0748272789
     C    -1.2018931216    3.0120355152    0.1544248356
     C    -0.8052124760    4.2989569520    0.2466841973
     C     0.6262840682    4.3199924748    0.0736965427
     C     1.0277270120    3.0455215068   -0.1142826876
     H    -2.1450904439    2.4934343407    0.2121351937
     H    -1.4485239791    5.1519491502    0.4149332685
     H     1.9751277937    2.5578208751   -0.2798639243
     H     1.2653302562    5.1922330564    0.0885021611
     O     2.1849874630   -0.0878665135   -0.0622659811
     C     3.0367432744   -0.1214057195    1.0523174731
     C     4.3110642051    0.0724001562    0.6532251219
     C     4.2921285525    0.2432977105   -0.7785515178
     C     3.0064948080    0.1439399758   -1.1777322166
     H     2.5478526697   -0.2888322459    1.9987482851
     H     5.1818769730    0.0923186567    1.2940790030
     H     2.4897099550    0.1978917040   -2.1221648016
     H     5.1455970083    0.4148117093   -1.4203644902
     O     0.2734034282   -2.2260101627   -0.2073849705
     H     1.1912293613   -2.5228132312   -0.3395961999
     H    -0.3098766347   -2.9875831936   -0.3694531391
     O    -2.2325320904   -0.2206348492    0.2931487710
     H    -2.9941771866   -0.3801121472   -0.2907489333
     H    -2.5300155507   -0.3536825279    1.2106286611
     O    -0.0954160032   -0.0780025177    2.2055471597
     C    -0.1361230456    1.0351687318    3.0587192712
     C     0.0498646762    0.6343879001    4.3336904797
     C     0.2229567170   -0.7971263177    4.3136618746
     C     0.1325693442   -1.1944973040    3.0268145883
     H    -0.3015254613    1.9821498294    2.5701678218
     H     0.0633609542    1.2738881505    5.2056183802
     H     0.1916901893   -2.1379708677    2.5088503806
     H     0.3899310720   -1.4399546430    5.1672646541
     O    -0.2275270393    0.2793643416   -2.2119328657
     H    -0.3856325613   -0.3039679695   -2.9742857105
     H    -0.3593888441    1.1971172736   -2.5090835024
