45
-1.1367320525217428e+03 frame 74   xyz file generated by TeraChem
    Mn     0.0266885841   -0.0952334811    0.0444687597
     O    -0.0518987307    2.3077667502    0.0251618139
     C    -1.2233143968    3.0494865127   -0.1567078714
     C    -0.9290042032    4.2474467415   -0.7084577735
     C     0.4979318301    4.2871675479   -0.8969392564
     C     0.9898448774    3.1105880223   -0.4494870434
     H    -2.1315498637    2.5719657066    0.1747274076
     H    -1.6360091034    5.0298327030   -0.9480699468
     H     1.9798774109    2.6906409779   -0.3597038115
     H     1.0750573708    5.1055268808   -1.3051851319
     O     2.3983241969   -0.1036243420   -0.0567820008
     C     3.3338499252    0.6266062494    0.6830638074
     C     4.5565708744    0.5150293975    0.1185313716
     C     4.4128067712   -0.3264367575   -1.0408573292
     C     3.1101469957   -0.6770961126   -1.1171161064
     H     2.9554438836    1.1438258706    1.5507031257
     H     5.4689684750    0.9698110762    0.4796111226
     H     2.5394661682   -1.3083875904   -1.7806206862
     H     5.1963885201   -0.6306200541   -1.7213432471
     O     0.0166129813   -2.3246277062    0.2414183331
     C     1.1239196969   -3.1337871775    0.5438631145
     C     0.7030848531   -4.3621779909    0.9089419695
     C    -0.7364260804   -4.3578163993    0.8466617553
     C    -1.1173961631   -3.1271677059    0.4473650582
     H     2.0861159819   -2.6640012797    0.4253734891
     H     1.3361370344   -5.1930836643    1.1887958911
     H    -2.0626968618   -2.6506368135    0.2476799431
     H    -1.3959519317   -5.1849992589    1.0707124299
     O    -2.3258912565   -0.1100997832    0.0716253149
     C    -3.1573057101    0.2612092931    1.1343154072
     C    -4.4498107449    0.0452835904    0.8070653919
     C    -4.4633375494   -0.4940795282   -0.5281840700
     C    -3.1786435981   -0.5726543548   -0.9379598476
     H    -2.6605802777    0.6548451609    2.0068411620
     H    -5.3081162974    0.2436878853    1.4343853757
     H    -2.6980581303   -0.9157182380   -1.8406604887
     H    -5.3338022999   -0.7823063747   -1.1016334281
     N     0.2321069058    0.1336434003    2.2463141598
     H    -0.4792242125   -0.3541591111    2.7968155973
     H     1.1242016806   -0.2412692867    2.5793856939
     H     0.2082210749    1.1144024032    2.5380380788
     N    -0.0070302340    0.2979121375   -2.1417712406
     H    -0.8172505696    0.8753471112   -2.3829091041
     H     0.8079760162    0.8514732530   -2.4194506782
     H    -0.0302215821   -0.5071259540   -2.7724728469
