45
-1.1023807946380532e+03 frame 64   xyz file generated by TeraChem
    Mn    -0.0259114713   -0.0157783674    0.1428566245
     O     0.0541216338    2.3055724009    0.2377000978
     C     1.2735071885    3.0332516649    0.0321134219
     C    -1.0619981984    2.9461443694   -0.4001393537
     H    -1.9277213964    2.3076374207   -0.2224144701
     H    -0.8755398006    3.0351577581   -1.4759357574
     H    -1.2151129539    3.9402363860    0.0399674286
     H     2.0460424651    2.5052256804    0.5913458669
     H     1.1623351663    4.0562947734    0.4152779094
     H     1.5225651993    3.0319463890   -1.0341483327
     O     2.4773815203    0.0042933804    0.5017146499
     C     3.4250695427    0.2094596278   -0.5508211381
     C     3.1006761189   -0.2850725903    1.7485658948
     H     2.2980349417   -0.3583384994    2.4794964232
     H     3.7916790818    0.5215121339    2.0317570272
     H     3.6609991155   -1.2295993436    1.6972224688
     H     2.8724406916    0.5801915764   -1.4155373684
     H     3.9428459878   -0.7298252755   -0.7925709290
     H     4.1715647980    0.9539676609   -0.2407837031
     O     0.2709544652   -2.3622847971    0.0937142767
     C    -0.9660991360   -3.0594603949   -0.1248036798
     C     1.3017544342   -2.8228825267   -0.7836071002
     H     2.2375972561   -2.3892328900   -0.4336510590
     H     1.0979233548   -2.4873390032   -1.8061770012
     H     1.3646299104   -3.9178422642   -0.7432627428
     H    -1.7001669494   -2.6302881509    0.5586113871
     H    -0.8234758362   -4.1287523918    0.0788507787
     H    -1.3028322003   -2.9223239506   -1.1601763563
     C    -2.7906472008   -0.5684196438    1.1450782708
     O    -2.0919672903   -0.0015741054    0.2286984120
     O    -4.1066028625   -0.3060729198    0.9830038322
     H    -4.1972663656    0.2589243970    0.1737516294
     O     0.0276206507   -0.1211022257    2.4778025338
     C    -0.5841829732    0.9916760511    3.1460186116
     C    -0.2380560973   -1.3558129272    3.1652646508
     H     0.2826010822   -2.1381873868    2.6123608861
     H    -1.3153697803   -1.5470502756    3.1553279247
     H     0.1483298829   -1.2961448457    4.1917143953
     H    -0.3671375559    1.8767148201    2.5464920555
     H    -0.1580597607    1.0968103744    4.1525961933
     H    -1.6663532028    0.8368274931    3.2057729741
     C     0.8522008509    0.9505802216   -2.5823804386
     O     0.3303808862    0.0309284663   -1.8536386792
     O     0.5134954399    0.7895427301   -3.8799430508
     H    -0.0776256646   -0.0043853140   -3.9336306225
