16
-5.7330015504563960e+02 frame 38   xyz file generated by TeraChem
    Mn     0.1020314802   -0.0316436441    0.0319054705
     N    -0.3208754834    2.2614160842    0.4631347917
     H    -1.3136218309    2.0943448668    0.6299629123
     H     0.0626929662    2.7031827133    1.2959564363
     H    -0.2482674168    2.9032857176   -0.3234218296
     N     2.2075052328    0.2162535584   -0.2666065487
     H     2.4411232196    1.2006292210   -0.3773731017
     H     2.6131716642   -0.1263876526    0.6022184416
     H     2.5752278200   -0.2938703148   -1.0663065352
     N     0.2117604756   -2.3855946998   -0.3602020072
     H     1.0339906065   -2.9688455943   -0.5043063397
     H    -0.2798224392   -2.7366428895    0.4599840706
     H    -0.4045929209   -2.5040185487   -1.1625827918
     F    -1.6216407417   -0.2912990415    0.3334132620
     F     0.6030667818   -0.2897325927    1.7366900893
     F    -0.1237904063    0.2468857856   -1.6998456227
