34
-1.0611760407885829e+03 frame 40   xyz file generated by TeraChem
    Mn    -0.0216377830   -0.2242496392    0.2372613273
     C     0.3472717181    1.7151713671    0.0289852972
     N     0.5111046902    2.8572809725   -0.1555496479
     C     1.9205988297   -0.4618211730   -0.0591631265
     N     3.0476613667   -0.6728230906   -0.2821082777
     C    -0.0459900055   -4.4375232083   -0.7402489280
     C     0.2469975432   -3.1343641518   -1.0253107950
     N    -0.2607018259   -2.3233824241   -0.0264200795
     C    -0.8410168638   -3.1228292554    0.8582393702
     N    -0.7394047479   -4.4083307765    0.4567967661
     H    -1.0750507322   -5.2080213053    0.9744185531
     H     0.1792267071   -5.3583337700   -1.2547243345
     H     0.7988289227   -2.7196773894   -1.8523552199
     H    -1.2781051355   -2.8004187675    1.7916543382
     C    -4.1150479450    0.8703785570   -0.6222841704
     C    -2.8504969186    0.5145377745   -0.9960705510
     N    -2.1134236822    0.1974733140    0.1314151419
     C    -2.9166785473    0.3669664772    1.1745394959
     N    -4.1362904578    0.7688709259    0.7568503875
     H    -4.9168131157    0.9796540642    1.3622311669
     H    -4.9760884827    1.1837632806   -1.1914258886
     H    -2.4109438088    0.4736546052   -1.9787558706
     H    -2.6320242256    0.2066336274    2.2044060434
     C    -0.3168940986   -0.5378399855    2.3883931006
     N    -0.7456374142   -0.8209903378    3.4422392078
     C     0.0375801484   -0.4607917086   -4.7016787489
     C    -0.5213090482   -0.9170828521   -3.5372898539
     N    -0.0737771742   -0.1660973353   -2.4645615966
     C     0.7451062021    0.7359728771   -2.9767182367
     N     0.8423392257    0.5956492086   -4.3236770902
     H     1.4168186017    1.1603400749   -4.9331747989
     H    -0.0567381378   -0.7764122101   -5.7293405682
     H    -1.2101742161   -1.7385552794   -3.3995625556
     H     1.2685774051    1.4957374729   -2.4153320195
