59
-1.5046806520389155e+03 frame 46   xyz file generated by TeraChem
    Mn    -0.0069351390   -0.0445568458   -0.0239438474
     C     1.2669522152    4.3522192919   -0.1200592133
     C     1.4613997986    3.0016007765   -0.2231954872
     N     0.2553651930    2.3340196627   -0.0330275610
     C    -0.6491260690    3.2892582517    0.1869568732
     N    -0.0748485986    4.5096749948    0.1424123679
     H    -0.5531635955    5.3949817791    0.2738806614
     H     1.9427553152    5.1899617347   -0.2086006085
     H     2.3811859653    2.4784571882   -0.4340822592
     H    -1.7006102067    3.1397781856    0.3785906623
     C     3.9634804269   -0.9935424990   -1.2149413744
     C     2.6139663733   -0.9704190083   -1.4164245557
     N     2.0014299008   -0.3679358213   -0.3181055174
     C     2.9867494028   -0.0359912615    0.5287464327
     N     4.1707880992   -0.3969299800    0.0114074016
     H     5.0732920819   -0.2534066597    0.4547196387
     H     4.7735850891   -1.3703096670   -1.8219109264
     H     2.0545895304   -1.3437372363   -2.2575581151
     H     2.8726955362    0.4594117626    1.4798595261
     C    -0.0329563896   -4.5882080061    0.1523763910
     C     0.5395864829   -3.3496770514    0.0417456462
     N    -0.4464587815   -2.3687665749    0.0917845107
     C    -1.5986763032   -3.0271191473    0.2319502673
     N    -1.3849923259   -4.3587826593    0.2701107577
     H    -2.1015574998   -5.0715641623    0.3626905036
     H     0.3882496846   -5.5827267139    0.1524201019
     H     1.5845233218   -3.1109887936   -0.0818157580
     H    -2.5814210209   -2.5856751110    0.3003817917
     C    -4.8314676865    0.7808988046    0.5292871563
     C    -4.1695070711    1.1675056825   -0.6373998233
     C    -2.8088172974    0.9140475875   -0.7622221537
     N    -2.0865532564    0.2988950336    0.2086389928
     C    -2.7349295179   -0.0677761385    1.3428211120
     C    -4.0935407046    0.1533985802    1.5345704775
     H    -5.8945008957    0.9656553345    0.6527646514
     H    -4.6955407464    1.6591787204   -1.4493053647
     H    -2.2741589490    1.2104473428   -1.6544809928
     H    -2.1467322412   -0.5535981028    2.1092108084
     H    -4.5581218572   -0.1611994021    2.4634236437
     C     0.6590575989    0.6412035966    4.0994904464
     C     0.4081710363    1.0627919064    2.8247090815
     N     0.3040712284   -0.0515033558    1.9965504440
     C     0.4977593958   -1.1283107453    2.7706236648
     N     0.7104963165   -0.7363756824    4.0372984100
     H     0.8796996084   -1.3579606915    4.8226883076
     H     0.7951068148    1.1856939756    5.0224243465
     H     0.2883909418    2.0623745047    2.4444685467
     H     0.5001296297   -2.1557505900    2.4427367777
     C    -0.4455678638   -0.0896436999   -4.8997919993
     C     0.0983935888    1.0107905892   -4.2339753041
     C     0.1911824111    0.9879768001   -2.8481848851
     N    -0.2333835644   -0.0693681079   -2.1111255067
     C    -0.7610338294   -1.1371982046   -2.7588355232
     C    -0.8816722742   -1.1788212406   -4.1425179567
     H    -0.5273056307   -0.0984374564   -5.9827342508
     H     0.4529130836    1.8812281893   -4.7762328287
     H     0.6031651748    1.8222035459   -2.2984616147
     H    -1.0867603844   -1.9629251899   -2.1437988758
     H    -1.3129828420   -2.0567764187   -4.6121805869
