59
-1.2197648786519285e+03 frame 39   xyz file generated by TeraChem
    Mn    -0.0002480403    0.0031143671    0.0008697274
     O    -0.0002204725    2.1638572865    0.0009080323
     C     1.1919355319    2.9985801782    0.1853075836
     C    -1.1922605234    2.9987945751   -0.1830676351
     H    -2.0435630987    2.3272633081   -0.1742072336
     H    -1.1172078910    3.5291894938   -1.1357560514
     H    -1.2557901770    3.7191462167    0.6365972505
     H     2.0431460601    2.3269407105    0.1764762523
     H     1.1167811264    3.5287567608    1.1381088802
     H     1.2556866722    3.7191091610   -0.6341817466
     O     2.2397841923    0.0035096314    0.1892745167
     C     3.2232789451   -0.1965663523   -0.8792261938
     C     2.9467491957    0.1568963896    1.4630925240
     H     2.2268886740    0.4759589862    2.2106554038
     H     3.7301730239    0.9116949642    1.3522003152
     H     3.3961043981   -0.7991904575    1.7461039629
     H     2.6987359903   -0.4716001662   -1.7899829151
     H     3.9078593317   -0.9976280971   -0.5873880204
     H     3.7844632820    0.7304366733   -1.0271707258
     O    -0.0002100464   -2.1552250120    0.0009119499
     C    -1.1978989441   -2.9902591426   -0.1420669007
     C     1.1974715517   -2.9902577570    0.1437633769
     H     2.0219738737   -2.3179384899    0.3573607123
     H     1.3702993482   -3.5356852931   -0.7878407582
     H     1.0483038569   -3.6978749553    0.9635042445
     H    -2.0224111422   -2.3179312843   -0.3555868077
     H    -1.3706950556   -3.5358101037    0.7894681791
     H    -1.0487221447   -3.6977534947   -0.9619108755
     O    -2.2400561627    0.0032911405   -0.1866772524
     C    -2.9472846673    0.1580398664   -1.4602250971
     C    -3.2233890953   -0.1975931002    0.8818977517
     H    -2.6986917259   -0.4745101155    1.7919847734
     H    -3.9087274722   -0.9976133869    0.5890095637
     H    -3.7837389849    0.7296575785    1.0314384878
     H    -2.2273658906    0.4769766889   -2.2077871150
     H    -3.7300964023    0.9133674330   -1.3486258671
     H    -3.3974309707   -0.7975382497   -1.7436764131
     C    -0.5665403026    0.0100610070    4.8393730942
     C    -0.6099809930    1.2039256883    4.1157009983
     C    -0.4416416889    1.1735653311    2.7375783560
     N    -0.2368688111    0.0140320737    2.0563241500
     C    -0.1938692109   -1.1468802491    2.7644397610
     C    -0.3525543410   -1.1819312702    4.1432607165
     H    -0.6946900363    0.0087704414    5.9183312843
     H    -0.7705718903    2.1588454372    4.6063684339
     H    -0.4645524116    2.0832891067    2.1616575353
     H    -0.0261793734   -2.0496096476    2.2017392821
     H    -0.3071010381   -2.1377360564    4.6559400428
     C     0.5665253751    0.0101544631   -4.8375185669
     C     0.3529300068   -1.1818820243   -4.1413820380
     C     0.1940842587   -1.1469172568   -2.7625671004
     N     0.2365512904    0.0140102232   -2.0544707898
     C     0.4409271820    1.1736215802   -2.7357868729
     C     0.6094245536    1.2040675993   -4.1138725894
     H     0.6947840194    0.0088884383   -5.9164643932
     H     0.3078800404   -2.1377174031   -4.6540383649
     H     0.0266781556   -2.0497554203   -2.1999557461
     H     0.4633583635    2.0833680599   -2.1598827097
     H     0.7696926679    2.1590440660   -4.6045375119
