19
-1.3915537718555643e+03 frame 103   xyz file generated by TeraChem
    Mn    -0.1205992685    0.0138912731    0.0068135298
     O    -0.3855837702    2.1110635966   -0.1149608967
     H     0.0194949803    2.5357379054   -0.9036925340
     H    -1.3077758024    2.4222008509   -0.0613651943
     O     2.0121927237    0.2401803159   -0.2971305841
     H     2.3304241256    0.7384590473   -1.0751786434
     H     2.5360121139    0.5235791162    0.4726325547
     O     0.0944506292   -2.0709634668    0.1543258566
     H     0.7966921756   -2.4722024694   -0.3892568374
     H     0.1278523053   -2.5026811441    1.0435914925
     O    -2.2784694532   -0.0904161136    0.3369700141
     H    -2.8411798182   -0.6099006055   -0.2633794364
     H    -2.5975002192   -0.2487603992    1.2433102113
     S     0.2051553309    0.4269118988    2.4365412809
     C     0.1790690369   -1.1912277027    2.8826152588
     N     0.1414270431   -2.3516595765    3.0564724452
     S    -0.4627482850   -0.3780455111   -2.4285324214
     C     0.4282113013    1.0105444711   -2.7276885550
     N     1.0730859868    1.9931252921   -2.7509609913
