29
-8.6054056723137273e+02 frame 49   xyz file generated by TeraChem
    Mn    -0.0116701029   -0.0036082425   -0.0024922127
     H     1.6956164365    4.6832399922   -1.0994148109
     H    -0.0314910211    4.8565675525   -1.5689517178
     C     0.6586901843    4.5360332283   -0.7823300434
     N     0.4515615300    3.1343710108   -0.5410770099
     C     0.2846383152    2.0067707294   -0.3478293173
     H     0.4614191023    5.0791486385    0.1472267963
     H     5.0742614370   -0.3809054537    0.2191025108
     H     4.6942590471   -1.8449918835   -0.7536566622
     C     4.5337703196   -0.7674504566   -0.6506774255
     N     3.1297905176   -0.5331151147   -0.4517216791
     C     2.0007151282   -0.3434781917   -0.2907280650
     H     4.8459568122   -0.2450848098   -1.5603165149
     H    -0.3480451357   -4.7784844353    1.7797739291
     H    -1.7508958565   -4.7610853483    0.6543726799
     C    -0.6837460770   -4.5450593549    0.7644277348
     N    -0.4767730959   -3.1424012660    0.5296133792
     C    -0.3102302062   -2.0140719927    0.3403542924
     H    -0.1017374761   -5.1083227984    0.0283683396
     H    -4.9322583747    0.0260380879    1.3657724293
     H    -4.6748535527    1.7804047100    1.0681058237
     C    -4.5529238264    0.7720529616    0.6606734341
     N    -3.1510055305    0.5316971088    0.4549043299
     C    -2.0231844686    0.3386330123    0.2893117703
     H    -5.0632104465    0.6834908172   -0.3036241474
     C     0.3952851008    0.3700502683    2.4575108302
     O     0.5818169247    0.5405436619    3.5547901534
     C    -0.4188622761   -0.3787688653   -2.4615529033
     O    -0.6055431240   -0.5497803328   -3.5587211357
