9
-2.1304761065591783e+03 frame 29   xyz file generated by TeraChem
    Mn    -0.1119465303    0.1120462106    0.0075254634
    Cl    -0.6203374051    2.9551117210   -0.5649843952
    Cl     2.2372139063    0.4940379918    0.2834119552
    Cl     0.2618592198   -2.7797267019    0.3858359593
     C    -2.0802969092   -0.2418773676   -0.3605007419
     N    -3.2154546373   -0.4449061457   -0.5652527422
    Cl    -0.5780148365    0.4495852813    2.3327048646
     C     0.1427476710   -0.1869236278   -1.9875253363
     N     0.2952532407   -0.3573470423   -3.1361570614
