43
-1.9908409138244640e+03 frame 80   xyz file generated by TeraChem
    Mn     0.0787016439    0.0222446066    0.0304282233
     C     0.8623310034    4.1554799948    0.6086251728
     C     1.2538686216    2.8563513685    0.4643202088
     N     0.1257246511    2.0535800480    0.3891382028
     C    -0.9282455087    2.8584452102    0.4881506561
     N    -0.5181468241    4.1311691426    0.6271066824
     H    -1.1269968547    4.9365961310    0.6880688926
     H     1.4249510499    5.0717664192    0.6926846029
     H     2.2466437394    2.4444334096    0.3959352840
     H    -1.9594436451    2.5479752762    0.4585807899
     C     4.6358165479   -0.1430041495   -0.0270590930
     C     3.4221113327    0.1019508209   -0.6095841801
     N     2.4088837101   -0.1318714973    0.3092549596
     C     3.0091912729   -0.5116234170    1.4304744355
     N     4.3517829021   -0.5317014031    1.2665365636
     H     5.0271663776   -0.7864306375    1.9752384532
     H     5.6452842292   -0.0767151757   -0.4024243027
     H     3.2032160579    0.4282304142   -1.6152560198
     H     2.5128178285   -0.7690352553    2.3543478887
     C     0.6425111121   -4.1020479486   -0.9164290177
     C     1.0947421860   -2.8235319995   -0.7652826133
     N     0.0400754390   -2.0170690530   -0.3608197706
     C    -1.0303104343   -2.8005766629   -0.2743051931
     N    -0.7025037965   -4.0626314371   -0.6031246524
     H    -1.3306656538   -4.8545688363   -0.5647346760
     H     1.1410158775   -5.0120475640   -1.2108869313
     H     2.0848655258   -2.4270518291   -0.9178374180
     H    -2.0117870747   -2.4901252767    0.0412478573
     C    -4.5274716056    0.1881203760    0.1316316963
     C    -3.3035785237    0.1022698556    0.7374362528
     N    -2.3046527192    0.0939100290   -0.2266727463
     C    -2.9256251487    0.1734471181   -1.3979409087
     N    -4.2657446186    0.2311099631   -1.2228583489
     H    -4.9521711734    0.3074777394   -1.9621308584
     H    -5.5306543691    0.2169742179    0.5279174933
     H    -3.0688097478    0.0426291493    1.7892273661
     H    -2.4510488682    0.1960214804   -2.3670952626
     S    -0.2479630489   -0.2156575623    2.4848300779
     C    -0.8619031781   -1.7725688487    2.6706428916
     N    -1.3176258794   -2.8449373131    2.7890391516
     S     0.4080166882    0.3485264077   -2.4035016335
     C    -0.2537211442    1.8804412152   -2.6393529068
     N    -0.7581467466    2.9258977160   -2.7933002364
