50
-1.0677928554989389e+03 frame 76   xyz file generated by TeraChem
    Mn    -0.0480860496   -0.0934427766    0.1095175136
     O    -0.0790693540    2.1456365931    0.0731990338
     C     1.0900989804    2.9575049615   -0.1967421239
     C    -1.2821142854    2.9518507625    0.0341693278
     H    -2.1083092929    2.2933617077    0.2906906618
     H    -1.4191676092    3.3659407472   -0.9699041698
     H    -1.2060605717    3.7667076333    0.7610973108
     H     1.9464358539    2.2875237673   -0.1781021952
     H     1.1894654784    3.7242079595    0.5775835090
     H     0.9970383434    3.4319622579   -1.1787577456
     O     2.2196322831   -0.0873838259    0.1119320085
     C     3.0561724754   -0.3546921476   -1.0407057844
     C     3.0261720189    0.1746890124    1.2877736365
     H     2.3348938695    0.3549170918    2.1081215693
     H     3.6584712827    1.0519732559    1.1195262437
     H     3.6540406341   -0.6951342263    1.5058442179
     H     2.3953164495   -0.5846789587   -1.8745797626
     H     3.7099501827   -1.2077335411   -0.8347915230
     H     3.6626106006    0.5270152207   -1.2714277946
     O    -0.0037555577   -2.3001403386    0.0093886351
     C    -1.0795548659   -3.0668789781   -0.5838552302
     C     1.1775170901   -3.1204853375    0.1831971474
     H     1.9501396420   -2.4835777661    0.6077831263
     H     1.5037228119   -3.5109972331   -0.7861427025
     H     0.9506894918   -3.9506175047    0.8588256758
     H    -1.9491439037   -2.4148429307   -0.6151444783
     H    -1.2907220138   -3.9420661894    0.0379597583
     H    -0.7991037444   -3.3855880906   -1.5927663769
     O    -2.3177023141   -0.1163062947    0.0927395724
     C    -3.1734090772    0.0684314542   -1.0615699231
     C    -3.1065201852   -0.4045006599    1.2755520746
     H    -2.4086902884   -0.4687118367    2.1068106367
     H    -3.6409921646   -1.3508104919    1.1462953024
     H    -3.8234476243    0.4049919397    1.4442969546
     H    -2.5262994081    0.2433479202   -1.9181958660
     H    -3.8314363210    0.9279637413   -0.9019306726
     H    -3.7766023506   -0.8301504490   -1.2275812362
     O    -0.0563248508   -0.0868195133    2.3665421028
     C    -0.2073432442    1.1082136492    3.1748334955
     C     0.0828741739   -1.2677286747    3.1967698769
     H     0.0715859509   -2.1250304447    2.5273245674
     H    -0.7550798360   -1.3299353273    3.8983140205
     H     1.0248238607   -1.2215078916    3.7518007955
     H    -0.2153570383    1.9484043603    2.4842391579
     H     0.6343665396    1.1958131047    3.8692721294
     H    -1.1447088141    1.0590484748    3.7372681273
     C     0.0162904155    0.8785503631   -3.0593508134
     O    -0.0442230797   -0.0168270747   -2.2395392602
     O     0.0320509579    0.8729591939   -4.3467546941
     H    -0.0149995923   -0.0290948152   -4.7482745065
