21
-2.7545621993092536e+03 frame 79   xyz file generated by TeraChem
    Mn    -0.2272486497    0.1303661230   -0.1032192297
     S    -0.1163899742    2.5793035048    0.2762122177
     C     1.4853667404    3.0556125936    0.5410810849
     N     2.5627103385    3.4682101973    0.7417367439
     S     2.1772025153   -0.2159389685    0.2319436448
     C     2.6259710839   -0.8098311585   -1.2786024708
     N     2.9628166276   -1.1831921871   -2.3379116607
     S    -0.6609470280   -2.2599978009   -0.5226188216
     C     0.2218811631   -3.0482291550    0.6791291104
     N     0.7811753415   -3.6278438954    1.5302058302
     S    -2.6287229412    0.5961680235   -0.5820114705
     C    -3.3901377601   -0.1219703950    0.7398019918
     N    -3.9384181078   -0.5914854350    1.6630546781
     P    -0.6203146768   -0.2628963025    2.6424518502
     H     0.5252121039   -0.1553664581    3.4692740931
     H    -1.4403272438    0.6384664124    3.3581428541
     H    -1.1250522596   -1.4637579849    3.1858625505
     P     0.1425825262    0.6631914833   -2.8626399464
     H     1.2730919306    1.4196002124   -3.2444642412
     H     0.2110485388   -0.3019151485   -3.8952179354
     H    -0.8316566899    1.4963010434   -3.4702417780
