46
-1.1914761805346602e+03 frame 81   xyz file generated by TeraChem
    Mn    -0.1712221818   -0.1042036230   -0.1879193286
     C    -0.2499839495    3.3789397291    0.3451676225
     O    -0.1025742391    2.3012995351   -0.2237031495
     H    -0.4926611878    3.4324062956    1.4180704960
     H    -0.1423921843    4.3251453954   -0.2052362453
     C     2.7331757039    0.8702429639    0.0997584360
     O     1.8554874205    0.0074457091    0.1648952951
     H     3.7623113141    0.6106893885    0.3802831163
     H     2.5068884213    1.8896039773   -0.2366762198
     C    -0.0913934051   -5.0175388886    1.0377159055
     C    -1.2992573127   -4.3459673247    0.8341645111
     C    -1.2726894993   -3.0002578028    0.4886976224
     N    -0.1213184572   -2.2963341746    0.3358862654
     C     1.0479221053   -2.9600863467    0.5457496503
     C     1.1018590563   -4.3050777359    0.8910394217
     H    -0.0799029180   -6.0699638516    1.3059245441
     H    -2.2519962067   -4.8547503309    0.9393914217
     H    -2.1961492358   -2.4572592064    0.3254039944
     H     1.9597213420   -2.3862357600    0.4278574645
     H     2.0651770882   -4.7812297526    1.0431484666
     C    -4.9067299130    0.3321793963   -1.0742920909
     C    -4.2901736911    1.0784441874   -0.0671967021
     C    -2.9281789991    0.9244102672    0.1538061904
     N    -2.1724898920    0.0685758574   -0.5818268081
     C    -2.7717473050   -0.6584990221   -1.5627271206
     C    -4.1296098967   -0.5524389555   -1.8280782468
     H    -5.9707315281    0.4363908226   -1.2674531996
     H    -4.8528847214    1.7734129940    0.5479702955
     H    -2.4279646511    1.4821109645    0.9344661007
     H    -2.1467273196   -1.3344677043   -2.1328097901
     H    -4.5643714224   -1.1545552205   -2.6196184001
     C    -0.3647521177   -0.3301077513    2.8439568834
     O    -0.5166296145    0.3191724768    1.8061054857
     H     0.0144147406   -1.3590565378    2.8265722555
     H    -0.6150679245    0.1366177724    3.8055711795
     C     0.8620724829   -0.3406030823   -4.8553325897
     C     0.3454257586    0.8412340465   -4.3164473993
     C     0.0314546890    0.8932164920   -2.9651258550
     N     0.2183900284   -0.1813413118   -2.1548947766
     C     0.7232860043   -1.3341611090   -2.6702259694
     C     1.0517615012   -1.4416698882   -4.0148335896
     H     1.1125230534   -0.4027282529   -5.9107658211
     H     0.1814016653    1.7204019963   -4.9315505936
     H    -0.3662464561    1.7902364562   -2.5101520574
     H     0.8624701169   -2.1666074555   -1.9913020908
     H     1.4536262424   -2.3780521852   -4.3888544925
