17
-2.5341050781841877e+03 frame 45   xyz file generated by TeraChem
    Mn    -0.0189845012    0.1160108517    0.0952694850
     C    -0.3853825717    2.4453449122   -0.2797018877
     S    -0.5746934507    3.9345220290   -0.4709440207
     C     2.0450131219    0.4793833656    0.3641745689
     S     3.5076438791    0.7488159287    0.6161909770
     C     0.3543165432   -2.2212101631    0.4324426403
     S     0.6293539343   -3.6866164368    0.6914107531
     P    -2.5661442865   -0.2771649918   -0.2587741738
     H    -2.9943475246   -1.5788730428    0.0604131137
     H    -3.3656949262    0.5610297090    0.5391932624
     H    -3.0634214174   -0.0630959846   -1.5583847029
     C    -0.4082050373    0.3615607860    2.1514601414
     S    -0.6198442264    0.5448053842    3.6336313236
     P     0.3751944198   -0.2731380184   -2.4413029150
     H     1.7238532501   -0.4962296725   -2.7726956282
     H    -0.2885381319   -1.3883488348   -2.9861504743
     H    -0.0100084616    0.7985481394   -3.2679030442
