34
-1.1198412211295615e+03 frame 33   xyz file generated by TeraChem
    Co     8.1309466518    1.2167770705    3.1710423096
     N     9.5232557566   -0.5058635714    2.9479980215
     N     9.3302843879    1.9216851463    1.4710873023
     H     8.8265620558    2.2916376555    0.6618735632
     H     9.8267375075    2.7164985036    1.8822714103
     N     6.9204457991   -0.1212702760    1.9277093978
     H     5.9127784586   -0.0373918983    2.0787108829
     H     7.0638952865    0.1102042572    0.9417768845
     N     7.7205582890    0.1285978218    5.0396813830
     H     6.7484177211   -0.1190997556    5.2384346819
     H     7.9802459392    0.8228334125    5.7451067702
     N     6.5579956648    2.7159817582    3.0019705172
     H     5.9280794512    2.6877061088    2.1968536260
     H     5.9651241131    2.7258246870    3.8370551774
     H     7.0180639246    3.6303435087    2.9882198664
    Cl     9.4529545481    2.5740204098    4.4769961235
     C    10.7245660755    0.0385406190    2.2346657989
     H    11.2841984257    0.6496614715    2.9466182211
     H    11.3761139527   -0.7854332591    1.9159899096
     C    10.3095133674    0.8821671376    1.0340764209
     H    11.1966295490    1.3393940633    0.5833382795
     H     9.8338795931    0.2785492271    0.2568384006
     C     8.8643007579   -1.6065542415    2.1636551906
     H     9.2173671078   -1.5412489960    1.1321897164
     H     9.1983899696   -2.5769277964    2.5483153526
     C     7.3389276725   -1.5295177427    2.1756804412
     H     6.9345664665   -2.2101760921    1.4183329632
     H     6.9169127730   -1.8299461191    3.1350397391
     C     9.8536411842   -0.9063062560    4.3546675214
     H    10.4752042264   -0.1155447742    4.7794199443
     H    10.4417059023   -1.8332415103    4.3471190930
     C     8.5931011093   -1.0826730279    5.1928027393
     H     8.8702148437   -1.2305084739    6.2410932392
     H     8.0228651192   -1.9612358007    4.8878813684
