35
-9.8054791461700074e+02 frame 26   xyz file generated by TeraChem
    Co     3.5327464176    4.0378826541    2.4423385125
     O     4.5478209342    5.6087187999    2.4699732492
     O     4.7211277469    7.8179097001    2.8618321374
     O     2.2398273251    2.7126386193    2.3045078297
     O     0.6327932612    1.6188315730    1.1716921947
     N     4.2074736476    3.0889698686    4.2881685990
     N     5.3181354850    3.0375463849    1.6961422386
     N     2.0214671212    5.4687381975    3.2991039214
     N     2.5031941106    4.6463096824    0.5273674094
     C     5.6175778431    2.6595706739    4.0992925787
     C     5.7756223747    2.0521339274    2.7097530299
     C     1.0264913403    5.7026043304    2.2229182049
     C     1.7074696207    5.8515916804    0.8625427820
     C     2.7784044992    6.6712421462    3.7042604017
     C     4.1183440885    6.7770043300    2.9552375058
     C     1.7165864469    3.4768960250    0.0858374989
     C     1.4510142268    2.5014182979    1.2444845216
     H     3.5917483117    2.2815856915    4.4060664593
     H     4.1205088381    3.6576970824    5.1297053127
     H     5.2263376313    2.5952898959    0.7822598199
     H     5.9923771960    3.7997795493    1.5952989275
     H     5.9309934739    1.9390773029    4.8629963122
     H     6.2458191360    3.5509456061    4.1956928556
     H     5.1467525196    1.1617992284    2.6079019885
     H     6.8165870466    1.7526965293    2.5458192785
     H     1.5451273109    5.0568794732    4.0990135433
     H     3.1957575440    4.8955382902   -0.1752560313
     H     0.4377766759    6.6057604323    2.4294832564
     H     0.3344926033    4.8554745131    2.2177696498
     H     0.9452147852    6.0446598986    0.0964958873
     H     2.3921052425    6.7041264167    0.8682471927
     H     3.0067807682    6.6060133363    4.7736193102
     H     2.2088901691    7.5938847765    3.5503818291
     H     0.7611065027    3.7642124685   -0.3663841208
     H     2.2824323344    2.9319799668   -0.6771629133
