29
-1.1674509056533263e+03 frame 71   xyz file generated by TeraChem
    Co     3.9308765320    2.4166918579    0.0350676501
     C     5.2517012145   -0.0438570706    0.5266673969
     C     5.2802317883    0.0436413523   -1.0208902162
     C     6.5465189440    0.7540809053   -1.5168146290
     C     6.6457965591    2.2876336515   -1.3380949271
     C     2.9167856709    4.7341467583    1.2825138076
     C     2.4583811584    4.9031151831   -0.1896042102
     C     1.0781636575    4.2674249107   -0.4106284864
     C     0.9703698812    2.7229133616   -0.4639448564
     H     3.2177462697    0.2965684804   -1.2980414963
     H     5.2879147815   -0.9870560883   -1.3984580884
     H     7.4130371963    0.3096293947   -1.0148870530
     H     4.3505346585    4.7104715974   -1.0798539753
     H     2.3825603668    5.9813765218   -0.3792402664
     H     0.4059966294    4.6130690355    0.3823329558
     N     4.0919913666    0.7911160928   -1.4681109599
     N     3.4408937274    4.2502243954   -1.0748349727
     O     4.6055902716    0.9151670900    1.1156458487
     O     5.8437744468   -0.9689864787    1.0719218960
     O     7.6000478820    2.8520341592   -1.8650514926
     O     5.7290605800    2.9118593898   -0.6532431460
     O     3.6205390783    3.6695788242    1.5189081256
     O     2.5555053033    5.5684195463    2.1054549555
     O    -0.1222841010    2.2514423359   -0.7607924736
     O     2.0225243727    1.9937469442   -0.2096640303
     H     6.6903256259    0.5638745927   -2.5893929249
     H     0.6437697544    4.6311935400   -1.3520594863
     H     4.1341853286    1.0500457858   -2.4519514064
     H     3.1094072287    4.1732679615   -2.0350365807
