31
-8.2818323724190327e+02 frame 48   xyz file generated by TeraChem
    Co    -0.0000958805    0.0003096984   -0.0003027084
     C     0.4353139513    1.9606018294   -2.1635549810
     C     0.5506274429    2.1375526840   -3.6583951882
     N    -1.2936191859    1.6696820744    0.5206609673
     N     1.6504551485    1.2256541801    0.7182337085
     O     0.2485406119    0.7109957400   -1.7669426769
     O     0.5141266919    2.9022470896   -1.3701596265
     N     1.2936920550   -1.6698120652   -0.5192693782
     N    -1.6494204014   -1.2267573802   -0.7200734714
     O    -0.2494957807   -0.7098844006    1.7668577974
     C    -0.4354536001   -1.9594383620    2.1637832540
     C    -0.5506500475   -2.1364716974    3.6586852684
     O    -0.5149662472   -2.9012330043    1.3706320363
     H     2.2604964433   -1.6043291698   -0.2022646437
     H     0.8705458031   -2.4855311012   -0.0612219943
     H     1.3164221915   -1.8208231828   -1.5277948051
     H    -0.8711423839    2.4859775936    0.0630919037
     H    -2.2605653090    1.6040367021    0.2041034902
     H    -1.3156247207    1.8190611734    1.5294099929
     H     1.5645286732    1.4226045496    1.7153431286
     H     2.5876116200    0.8560388976    0.5623554122
     H     1.5671476122    2.1040046117    0.1930554961
     H    -0.3227073626    1.7045555022   -4.1568737214
     H     0.6360764808    3.1965738241   -3.9040024755
     H     1.4324676863    1.6019716080   -4.0273038258
     H    -1.4417254941   -1.6141311088    4.0246366295
     H    -0.6217725218   -3.1964034941    3.9049853040
     H     0.3145930902   -1.6899178369    4.1590840833
     H    -1.5610233043   -1.4261550293   -1.7164891810
     H    -1.5673413597   -2.1039934396   -0.1928291090
     H    -2.5870330194   -0.8568755868   -0.5675460570
