39
-1.6037207185141510e+03 frame 20   xyz file generated by TeraChem
    Co     1.0857413087    1.8547402743   10.5435959521
    Cl    -0.5323837939    1.7406159937    8.9290529741
    Cl     2.7500003876    1.9490249430   12.1965955667
     N    -0.2392591479    2.9523774521   11.8985565938
     N     0.2343772818    0.2186905035   11.7002180756
     N     2.5445179610    0.8157339658    9.3033925728
     N     2.0705948361    3.5462015893    9.5505901890
     C    -1.0981700806    2.0532275188   12.7529193986
     C    -0.2976010304    0.7547309066   12.9805476717
     C    -1.3761426497    2.7221877812   14.1074569073
     C    -2.4167047580    1.7759170999   12.0161205987
     C     3.6318759844    1.7615017351    8.9410035117
     C     3.0651122360    3.1257591298    8.4977518949
     C     4.2119511279    4.1438094791    8.4120044922
     C     2.3427284550    3.0241405275    7.1464097462
     H    -0.8285702545    3.5984332592   11.3718148452
     H     0.3728221848    3.5159470429   12.4913039755
     H     0.9481573294   -0.4831290397   11.8920466767
     H    -0.4965902208   -0.2304953716   11.1474283740
     H     2.0707967676    0.4564119005    8.4737573820
     H     2.9339530527    0.0173349262    9.8031850505
     H     2.5436779845    4.0629455968   10.2935846942
     H     1.3742483214    4.1717146928    9.1437338591
     H    -0.9310182078    0.0148639074   13.4829429916
     H     0.5660649320    0.9548558941   13.6181468769
     H    -1.9343884846    3.6540474626   13.9699156376
     H    -0.4448772063    2.9479379304   14.6404854354
     H    -1.9771987719    2.0661650458   14.7459202569
     H    -3.0390132578    1.1004529074   12.6114489099
     H    -2.2575153738    1.3306526566   11.0308068394
     H    -2.9835164592    2.7032300427   11.8738957830
     H     4.2507562349    1.8868430532    9.8322817529
     H     4.2605750870    1.3499489902    8.1430938640
     H     4.9565024058    3.8204993780    7.6768872331
     H     4.7217984973    4.2582864334    9.3761177460
     H     3.8393365803    5.1242640615    8.0968926914
     H     3.0406024700    2.6819279239    6.3758050305
     H     1.9670219447    4.0057269552    6.8354242186
     H     1.4919344944    2.3391767426    7.1807674313
