41
-7.9313623253931246e+02 frame 38   xyz file generated by TeraChem
    Co     1.0007026649   -3.1701292196    2.3416111040
     C     0.9680413249   -1.1059233270    4.7122372641
     C    -0.4841284361   -1.3555444681    4.3454317372
     C    -1.8656407459   -2.0100612527    2.3142598393
     C    -1.6440680231   -2.4510021999    0.8782118946
     C     1.7702463673   -6.1521385154    2.7376927699
     C     3.0683733156   -5.4275265145    2.4207505301
     C     3.8398424147   -3.3576504562    1.1570386900
     C     3.2351413562   -2.2378382833    0.3294676228
     N     1.7835492883   -2.2774823603    4.2254859672
     N    -0.5485073483   -1.6011148070    2.8776734849
     N    -0.5888613535   -3.5270008735    0.8710682303
     N     0.7849957067   -5.1478248287    3.2831208805
     N     2.7372050508   -4.2936546567    1.5117198852
     N     2.0826836009   -1.6456483555    1.0990567454
     H     2.3622609458   -4.6847928533    0.6399646750
     H    -0.1602519965   -5.5392975855    3.2220427911
     H     0.9449030373   -5.0495247527    4.2899183445
     H     2.4521497040   -0.9296507679    1.7318654411
     H     1.4839909690   -1.1334074145    0.4454126143
     H    -1.1125653670   -0.4953298977    4.6132640653
     H    -0.8920355024   -2.2325012244    4.8594618250
     H    -2.2678512445   -2.8218736200    2.9298104754
     H    -2.5773003539   -1.1749499107    2.3639548265
     H     1.0889806811   -0.9687125110    5.7912448027
     H     1.3466320906   -0.2019520352    4.2245717513
     H    -0.2288990209   -0.7565797776    2.3934210825
     H     2.8445959792   -2.6207263579   -0.6187793507
     H     3.9790952021   -1.4712195932    0.0896225493
     H     4.2897415406   -2.9866375224    2.0838010808
     H     4.6250879774   -3.8808815002    0.5961808451
     H     3.7880448236   -6.1060065988    1.9447785029
     H     3.5431377737   -5.0198664888    3.3190854739
     H     2.7670598287   -1.9999335769    4.1572610379
     H     1.7803934698   -2.9950250237    4.9558294299
     H    -1.0386338998   -4.4248871662    1.0750220321
     H    -0.2245958085   -3.6311704278   -0.0802870701
     H     1.9303809175   -6.9655869044    3.4521703380
     H     1.3350991006   -6.5891367131    1.8335856955
     H    -1.2882839027   -1.6218574312    0.2585940006
     H    -2.5725050226   -2.8172067430    0.4285938865
