38
-1.0198529519855126e+03 frame 36   xyz file generated by TeraChem
    Co     2.4491550437   -0.2221017428   13.6879929077
     O     3.1886578590    1.2402313986   12.8608996724
     O     4.6112802431    1.6613394082   11.1907955201
     O     2.6039778087   -2.2669497495   10.2916249931
     O     2.8121050483   -1.6585569650   12.4485982524
     N     2.0043220516    1.1994986785   15.3378841973
     N     4.1505824752   -0.9281437926   14.8116714640
     N     1.4673373478   -1.8643000691   14.8647442545
     N     0.7762721853    0.0432496934   12.2706542981
     C     3.2071707116    1.9736286196   15.7864834595
     C     4.3112819205    1.0842182672   16.3607871396
     C     5.0182047226    0.1460006371   15.3744499141
     C     3.7394285335   -1.9658936623   15.7875965861
     C     2.5833155032   -2.7866952981   15.2279806872
     C     3.5162486966    1.3031732324   11.5445748601
     C     2.3873732276    0.9378268543   10.5783314000
     C     1.4963205494   -0.2490286883   10.9961563002
     C     2.3540080511   -1.5205819407   11.2102532605
     H     2.8822151974   -3.3036766059   14.3139801638
     H     2.2631612856   -3.5358273040   15.9607767507
     H     0.7920961990   -0.4554080165   10.1848813336
     H     3.9341093173    0.5324956393   17.2327219269
     H     5.0829495376    1.7531235241   16.7598359716
     H     2.8445187345    0.7120592959    9.6117613082
     H     1.7646612717    1.8329910493   10.4370666811
     H     3.4222856945   -1.4632969223   16.7060557466
     H     4.5803526433   -2.6206194023   16.0491162361
     H     5.3915211623    0.7223774296   14.5232341084
     H     5.8826925600   -0.3115427547   15.8741572048
     H     2.9060281336    2.7066244846   16.5442385634
     H     3.5733063173    2.5208198880   14.9153378601
     H     0.3849742064    0.9857934866   12.2602820348
     H    -0.0078735608   -0.6000546209   12.3825541687
     H     1.5535525602    0.7842304340   16.1553605144
     H     1.3249623246    1.8659207886   14.9668254679
     H     0.8135361114   -2.3560851418   14.2563626951
     H     0.9430783622   -1.5998789710   15.6998885767
     H     4.6597478883   -1.3887383872   14.0541347535
