35
-7.9341949700681698e+02 frame 40   xyz file generated by TeraChem
     C     2.0977925291    9.3815670888   13.2590053996
     H     2.3630388527   10.0003744964   14.1198557553
     H     2.2788994086    8.3376078228   13.5332427252
     C     0.6353199690    9.5687541459   12.8747239034
     H     0.3800341944    8.9253381958   12.0261060110
     H    -0.0123084533    9.2813673396   13.7114822340
     C     0.3224313223   11.9544073280   13.5766953619
     H     0.5437466190   11.4473708830   14.5190060997
     H    -0.6703247724   12.4060399053   13.6665006980
     C     1.3816089717   13.0983717631   13.3916378000
     H     1.4981176324   13.6218064126   14.3483267079
     C     0.9676391792   14.1299867773   12.2910466568
     H    -0.0611524407   14.4556908052   12.4728929683
     H     1.6147254234   15.0044584148   12.3968828761
     C     1.9830294392   14.3504243270   10.0027028163
     H     1.7281708559   15.4159632062   10.0415663150
     H     1.7719863685   13.9971025376    8.9881032516
     C     3.4579968432   14.1546667203   10.3323647083
     H     4.0724893822   14.7066231891    9.6140259620
     H     3.7003394285   14.5335318597   11.3291168934
     N     0.3705531866   10.9805154505   12.4560316764
     H    -0.5155871735   11.0004427583   11.9541834731
     N     1.1167613936   13.5568725244   10.9284171882
     H     0.1991593246   13.4654877883   10.4958789288
     N     3.7902478892   12.6947923745   10.3189186198
     H     4.6879646353   12.5533042422   10.7858032409
     H     3.9298529936   12.3898884472    9.3529642530
     N     2.9718764544    9.8020996204   12.1209421689
     H     3.0192011322    9.0461432946   11.4345143854
     H     3.9273579272    9.9319700848   12.4583380206
     O     2.5691902785   12.4957789287   13.0007627101
     O     1.5545840681   10.6952955639    9.4093424849
    Co     2.1735781513   11.6336160151   11.2863311789
     H     2.1195918784   10.1945134292    8.7952576272
     H     0.6416642355   10.5456771064    9.1093676597
