43
-1.2377947783201505e+03 frame 31   xyz file generated by TeraChem
    Co     9.8924244276    1.4980206494    2.2280881858
    Cl     9.5484830846   -0.5109546522    3.1567651886
     N     7.6922594647    1.8400358621    2.3025936638
     N     9.7359803155    1.1033524316    0.0603110503
     N    12.0593441213    1.0706722858    2.2165558390
     N    10.3126944900    3.5954383791    1.7577291930
     N    10.0237635669    2.4054817948    4.3093200838
     C     6.9231616441    2.3783520709    1.1409851894
     C     7.2264774914    1.5990347873   -0.1318996835
     C     8.6338231897    1.7846650290   -0.6957545895
     C    10.9852359368    1.1387923030   -0.7712293518
     C    12.1894722259    0.4062988283   -0.1857958804
     C    12.8760965382    1.1243264842    0.9699709585
     C    10.7625286857    4.3366098197    2.9726987310
     C     9.9158843129    3.8833130187    4.1519083134
     C    11.1380773355    1.9925156536    5.2058010669
     H     7.4300134345    2.3626433720    3.1409439264
     H     7.3692236955    0.8852765204    2.4819046020
     H    10.2219851619    4.4015615030    5.0684328109
     H     8.8652180747    4.1377080832    3.9747951382
     H    12.0836266988    2.4180897491    4.8599786430
     H    10.9632409404    2.3563487077    6.2244589191
     H    11.2057162796    0.9034428048    5.2269878821
     H    10.6808053501    5.4193860141    2.8301052692
     H    11.8201214713    4.1099758004    3.1345554220
     H    12.9211382807    0.3036043740   -0.9950372763
     H    11.9218337202   -0.6201996038    0.1008622395
     H    13.8561806355    0.6742712422    1.1644653813
     H    13.0515826265    2.1769646490    0.7212247710
     H    11.2285453130    2.1921416835   -0.9543591212
     H    10.7409149899    0.7029627853   -1.7481179060
     H     8.6510134299    1.3993876629   -1.7226924495
     H     8.8891742348    2.8489434674   -0.7595699069
     H     6.5274216902    1.9388475614   -0.9043156682
     H     7.0065319118    0.5316510071    0.0120601080
     H     7.1749104820    3.4385905269    1.0192046337
     H     5.8514121340    2.3303012134    1.3639142082
     H     9.1697722802    2.0526352149    4.7424977625
     H     9.4745624930    0.1156490260    0.1537660462
     H     9.4460286866    4.0079708926    1.4067990548
     H    10.9964040050    3.6890586424    1.0054111366
     H    12.0629139954    0.1089034360    2.5649808588
     H    12.5165134428    1.6183667658    2.9459931639
