38
-1.0739428318851742e+03 frame 55   xyz file generated by TeraChem
    Co     8.9697703470    2.4421949544   14.3324804382
     O     7.2911330142    2.1954580191   13.6215002312
     O     5.8982274034    1.8166108527   11.8988094629
     O     7.4578648394    7.6827394561   13.5599267471
     O     9.6458268186    7.1490758908   13.3083154170
     N     9.4991192499    1.8804772194   12.1848381717
     N     9.1884396624    4.4777995631   13.4739117243
     N    11.1430999756    2.0118659639   14.7773860148
     N     8.8700574190    0.4567900126   15.3304215341
     N     9.1366679668    3.7257769512   17.2569574065
     C    10.0132694806    3.1334415007   11.5699083952
     C     9.1820269054    4.3373800724   11.9961829986
     C     8.2450605041    1.3728006564   11.5770045148
     C     7.0089920996    1.8273414459   12.3627667310
     C     8.1533914442    5.4103975202   13.9795557672
     C     8.3431267581    6.8694416974   13.5802238053
     C    11.2086203674    0.9601475674   15.8343547601
     C    10.2099021346   -0.1462779151   15.5116558770
     C     9.0204906779    3.2759807185   16.1835151779
     H    10.2155842359    1.1620787007   12.1085772827
     H     9.7023464885    8.1083186547   13.1278776202
     H    10.4808164493   -0.6503937925   14.5769449229
     H    10.2185451469   -0.9003271597   16.3067653767
     H     8.2603522783    0.2778200394   11.6004026022
     H     8.1384092849    1.6732049058   10.5291560836
     H    10.9476910336    1.4428554419   16.7793010377
     H    12.2203169868    0.5507384218   15.9258309687
     H     8.1587324314    5.3683731477   15.0736937263
     H     7.1711138698    5.0725918177   13.6444046161
     H     9.5684526640    5.2417724875   11.5132865241
     H     8.1404543845    4.2168611052   11.6830987294
     H    10.0170833561    3.0586266816   10.4745833748
     H    11.0536068698    3.2620626548   11.8911739600
     H    10.0968200497    4.8457473893   13.7644031769
     H     8.2219866133   -0.1839336952   14.8729567983
     H     8.4535663515    0.6971493890   16.2316701869
     H    11.5563244860    2.8740505677   15.1340574067
     H    11.7016670472    1.7345193560   13.9695195852
