41
-1.0259084088980676e+03 frame 35   xyz file generated by TeraChem
    Co     3.0276406046    1.3581947440    1.7800196852
     O     1.6977437045    1.8160265174    0.4162076071
     O     3.1790165691   -0.4111110800    0.9013862470
     C    -0.1182935577    1.7173169628   -1.0981888765
     C     1.0302020657    1.0632163738   -0.3735402810
     C     1.3337271370   -0.2947291669   -0.5860884521
     C     2.4008608130   -0.9590813439    0.0368878902
     C     2.7004547236   -2.3994701776   -0.2922359177
     O     1.6922198407    0.8782814523    3.1488351857
     O     3.1656737860    3.1203949037    2.6613352626
     C    -0.1606895506    0.9863833396    4.6174953614
     C     1.0010589025    1.6359283905    3.9096772173
     C     1.2889718879    3.0017618874    4.1108137775
     C     2.3636722620    3.6682170879    3.5062686583
     C     2.6481248153    5.1124842431    3.8315286336
     N     4.6898059643    0.5770166318    2.9556504638
     N     4.7255203661    2.1311379756    0.6427761123
     C     5.9496418945    1.2566463616    2.5779709912
     C     5.9721524392    1.4501603675    1.0613477223
     H    -0.6018735390    1.0418652213   -1.8067468315
     H     0.2397824580    2.6056156393   -1.6296749475
     H    -0.8597032159    2.0581434529   -0.3661875248
     H     0.7340258242   -0.8468808300   -1.2986075634
     H     2.0401286992   -2.7957027912   -1.0660250540
     H     2.5938238208   -3.0083072127    0.6131213749
     H     3.7405293971   -2.4933361222   -0.6241257651
     H    -0.6549123793    1.6640617413    5.3165400759
     H     0.1862567359    0.0978851836    5.1557141363
     H    -0.8908637855    0.6463393408    3.8737192552
     H     0.6700955732    3.5567186047    4.8045833235
     H     1.9616143073    5.5136988252    4.5795174099
     H     2.5704642508    5.7125597437    2.9175081076
     H     3.6764202629    5.2122576760    4.1969786322
     H     4.7078899958   -0.4105008325    2.6983777348
     H     4.5169225467    0.6334645406    3.9579315402
     H     4.7406086929    3.1214156264    0.8892904795
     H     4.5829643095    2.0646671647   -0.3637390914
     H     5.9635019135    2.2281881780    3.0817717480
     H     6.8364369267    0.6982306918    2.8997324085
     H     5.9995416135    0.4783146023    0.5586462763
     H     6.8691284524    2.0067262851    0.7657445076
