45
-1.0036381849558707e+03 frame 27   xyz file generated by TeraChem
    Co     7.7764128652    3.0954285555   -3.9083725280
     N     6.4774303921    1.4091239870   -3.4091017625
     C     5.3027983824    1.9250764539   -2.6196699154
     C     5.1795834615    3.4466681090   -2.7401526131
     N     6.5193235722    4.0106732630   -2.4395360618
     C     6.7496285406    5.4660484323   -2.6155693633
     C     8.2472362471    5.7052226865   -2.4128007897
     N     9.0528070112    4.7617732492   -3.2622446667
     C    10.2612602798    4.1921704825   -2.5994246872
     C     9.8639259960    3.0044162313   -1.7231384551
     N     9.1024884719    2.0210331543   -2.5450512674
     C     8.3000794629    1.0212280586   -1.7837944016
     C     7.2883009884    0.3629862665   -2.7211319886
     O     6.9551663337    3.7742798472   -5.3542899144
     C     7.2249723503    3.5874222980   -6.6813230588
     O     6.4591246942    3.9069490578   -7.5435975563
     C     8.6140868732    2.9730934371   -6.9080054139
     C     8.6693754639    2.1215691217   -8.1741409566
     N     9.0032188954    2.2393823216   -5.6573572556
     H     6.1205358581    1.0274845180   -4.2857968196
     H     4.3812795262    1.4388009014   -2.9530392747
     H     5.4499985404    1.6448571028   -1.5711224991
     H     4.9084879459    3.7501495103   -3.7551611535
     H     4.4137105094    3.8204880615   -2.0502669404
     H     6.7639178052    3.7619654257   -1.4780139014
     H     6.1671967590    6.0601316789   -1.9013286571
     H     6.4343168126    5.7401775070   -3.6260152647
     H     8.5077861827    6.7424553216   -2.6435427487
     H     8.5136317878    5.5333434008   -1.3646263582
     H     9.3446516891    5.2615814007   -4.1027209155
     H    10.7848734972    4.9477600844   -2.0018444151
     H    10.9497033566    3.8692701671   -3.3872162128
     H     9.2115434846    3.3283365012   -0.9066118359
     H    10.7497944688    2.5482254903   -1.2671724291
     H     9.7696292818    1.5078421842   -3.1247117494
     H     7.7926383746    1.5512423297   -0.9715745623
     H     8.9391324242    0.2615667482   -1.3187924024
     H     7.8075192131   -0.2149702245   -3.4929713101
     H     6.6531928723   -0.3359599229   -2.1647859156
     H     9.3027821121    3.8224490580   -7.0053035106
     H     8.0113294022    1.2484629549   -8.0944350138
     H     9.6904462474    1.7828011288   -8.3730911342
     H     8.3290787644    2.7138308358   -9.0274256846
     H    10.0206712137    2.2473696453   -5.5689126185
     H     8.7547289301    1.2537585033   -5.7794706807
