44
-2.0377598439047051e+03 frame 37   xyz file generated by TeraChem
    Co    12.4289011794    5.2409994618    9.9821576626
     S    13.7299305946    3.7773219462   11.5901709692
    Cl    14.1502354575    6.2403110824    9.0420957736
     S    12.3872362556    6.8412260695   11.9703676581
     N    10.9185348784    6.5087315449    9.0996931034
     H    11.4396361598    7.2539298417    8.6339593476
     H    10.4886059315    5.9634390951    8.3516048422
     C     9.6123657056    6.3975760685   11.3295722877
     N    10.7010092950    4.2270190151   10.7976383040
     C    11.3889938775    0.4319330357   10.5054607214
     H    12.2264265593   -0.2223038702   10.2447523613
     H    10.5657639837    0.2091670049    9.8186405378
     H    11.0627607418    0.1706138471   11.5172179692
     C     8.1944355269    6.7925868199   11.8082953002
     H     8.0826476856    7.8807546897   11.8331846667
     H     7.9884264280    6.4137701114   12.8148860836
     H     7.4300239276    6.3939599456   11.1330809119
     N    12.6658445216    3.5539054550    8.6193593625
     H    12.3318333209    3.8461008064    7.6987601791
     H    13.6824046065    3.5337868939    8.5130373912
     C    11.7990645667    1.9258772196   10.4096655941
     C    12.1509735622    2.1836391627    8.9283146548
     H    12.8865073434    1.4433057873    8.5966032973
     H    11.2486316188    2.0240609854    8.3314891456
     C    10.5708405140    2.7415584378   10.8478583720
     H     9.7286062845    2.4624304956   10.2042668384
     H    10.3012963893    2.4564046960   11.8717058645
     C     9.8506409707    7.1039522529    9.9595039639
     H     8.9092182554    7.1053342038    9.4034723223
     H    10.1054356901    8.1504924914   10.1501062509
     C    10.6036403305    6.8748623540   12.4347649340
     H    10.4706825759    6.2877773050   13.3478099280
     H    10.3804636313    7.9185899418   12.6770225355
     C    13.0361757411    4.3555444990   13.2002469859
     H    11.9878603739    4.0558912954   13.2720385373
     H    13.5989028671    3.8609695093   13.9996830135
     C     9.6931019361    4.8896741052   11.2308674792
     H     8.8212983611    4.3383821093   11.6060859614
     C    13.0038249956    2.0887972986   11.3696545296
     H    13.8428706980    1.4762051020   11.0250916137
     H    12.7404822480    1.7357629778   12.3714867577
     C    13.2038241732    5.8684771507   13.3118328778
     H    14.2567252664    6.1619533482   13.2533109761
     H    12.8193640426    6.2269193715   14.2718718268
