46
-1.4263734186555057e+03 frame 55   xyz file generated by TeraChem
    Co     3.3437529079    5.4993886068   11.9768951609
    Cl     3.5334686855    4.4615920015   13.9334643470
     N     2.6485261623    6.8306303124   10.4009978479
     C     1.4115531205    6.3211773456    9.7435423628
     C     0.5199697635    5.7121251867   10.8192022723
     N     1.2975825501    4.6976332759   11.5823277338
     C     1.3848745492    3.3681051151   10.8898730734
     C     2.7935553092    2.7872135256   10.9540716733
     N     3.7544231132    3.8632305162   10.5973704589
     C     5.1941742258    3.5088703954   10.7043862210
     C     6.0036389218    4.7909402482   10.5754623413
     N     5.5119687650    5.7641739621   11.5968307858
     N     3.4796354379    7.4102747677   13.2290845045
     C     2.3772119303    7.8557805361   14.1230992977
     C     1.3151671480    8.6012601438   13.3280343032
     O     1.3578655443    8.7076698806   12.1050323372
     O     0.3926909466    9.0938854496   14.1133386979
     C    -0.7064657240    9.8811620376   13.5087142296
     C    -1.5974892068   10.3526582486   14.6351217808
     H     3.3414322309    7.0932208016    9.6978645872
     H     2.3878178432    7.6881822140   10.9132500381
     H     0.8820942167    7.1292708835    9.2284870797
     H     1.6942601818    5.5816263091    8.9879998665
     H    -0.3773576468    5.2641383805   10.3764518006
     H     0.2022421481    6.4899446411   11.5164537237
     H     0.8878505464    4.5638333236   12.5070190813
     H     1.0918719034    3.5161861765    9.8462556753
     H     0.6657820104    2.6689532759   11.3276339469
     H     2.8830564308    1.9329039891   10.2717105215
     H     3.0420278440    2.4487034489   11.9619541141
     H     3.5694187855    4.1715627424    9.6391539586
     H     5.3506539335    3.0397873220   11.6805359410
     H     5.4814318936    2.7862737456    9.9312756766
     H     5.8586436582    5.2416091628    9.5882208420
     H     7.0733029552    4.5915967257   10.6945624210
     H     5.9329851319    5.5460804736   12.5038976366
     H     5.8273744120    6.7072710683   11.3647405619
     H     3.7616441463    8.2069197959   12.6526421910
     H     4.2788324238    7.1861518165   13.8240109208
     H     1.9383536381    6.9849196531   14.6185979018
     H     2.7532409953    8.5171964861   14.9123573902
     H    -1.2228967323    9.2263454801   12.8019546847
     H    -0.2461718202   10.7031942362   12.9555036474
     H    -2.4161426831   10.9441833702   14.2127621521
     H    -1.0477222968   10.9858247176   15.3369681952
     H    -2.0311580156    9.5101433876   15.1813198864
