34
-9.9660230743187435e+02 frame 26   xyz file generated by TeraChem
    Co     4.0536749168    3.2290457649    8.1483269356
     N     2.2894120835    2.9900176897    6.9727886536
     N     5.4983332301    2.9364121305    6.5140646058
     N     4.4932139915    1.0820562099    8.3784328219
     N     5.5091938059    3.7972836082    9.7593169458
     N     3.8684166324    5.4260367415    8.1210298643
     O     2.6256642918    3.2063921940    9.7475681887
     O     0.3642076544    2.9256478528   10.1326858543
     O    -0.0371615415    2.7717458977    7.3081628554
     O     3.2032984860    3.1054559625    4.8676469300
     C     1.4127283707    3.0366132831    9.5908143713
     C     1.1137448592    2.8975468986    7.5943898366
     C     2.2190521133    2.9903264544    5.5740570731
     C     5.7503761779    1.4848027410    6.3194686896
     C     5.7523449174    0.7607135298    7.6622684078
     C     5.7218227788    5.2698685425    9.7249830917
     C     4.4029833415    5.9646148663    9.3976464268
     H     6.3793944708    3.4419936007    6.6025469033
     H     5.0075975494    3.2882346739    5.6875397005
     H     4.5350605006    0.7718685635    9.3489266731
     H     3.7124229404    0.5751824085    7.9574703883
     H     5.0288866968    3.5466314092   10.6257139782
     H     6.4091601823    3.3186945949    9.7865978481
     H     2.8792002805    5.6555629693    8.0244392447
     H     4.3331819927    5.8641349353    7.3242690819
     H     1.2056429378    2.8844506680    5.1501594341
     H     6.6906706669    1.2986574173    5.7891170877
     H     4.9408904243    1.1000797874    5.6913990793
     H     6.5845390222    1.1100064476    8.2838528224
     H     5.8827928434   -0.3174441895    7.5128090288
     H     6.4636066319    5.4824813926    8.9465675627
     H     6.1207223157    5.6520005959   10.6717234284
     H     3.6652545994    5.7465870611   10.1754463947
     H     4.5467752883    7.0505003692    9.3640729820
