31
-1.4493663304982242e+03 frame 22   xyz file generated by TeraChem
    Cr     2.0186896624    1.8610588123    6.6345705381
     S     0.5097066278    5.8055111300    9.1128308135
     N     1.3754059801    3.5450398626    7.6812191345
     C     1.0105339386    4.4969017537    8.2845398124
     N     3.3135897385    1.0478759532    8.6296168828
     H     2.8587731049    1.0684661258    9.5414472129
     H     3.5955949661    0.0795204535    8.4730527310
     N     3.9817984579    2.7723764788    6.3752015179
     H     4.2725116435    2.7417344028    5.3972428007
     H     3.9016779125    3.7618369497    6.6168469642
     C     4.5079136665    1.9209446082    8.6447138618
     H     5.3213874423    1.5209141883    9.2643714694
     H     4.2097314945    2.8825790090    9.0763727430
     C     5.0254523953    2.1299746849    7.2238774390
     H     5.9431644486    2.7290354220    7.2448171436
     H     5.2664589807    1.1653729359    6.7660540755
     S     3.5270767918   -2.0832025180    4.1557912979
     N     2.6617354739    0.1772939706    5.5875845321
     C     3.0265704954   -0.7745851151    4.9842676152
     N     0.7237606156    2.6739725276    4.6393891991
     H     1.1785793538    2.6534398804    3.7275478163
     H     0.4415598362    3.6422954127    4.7958543581
     N     0.0553762515    0.9497737579    6.8938943336
     H    -0.2353488784    0.9808283605    7.8718348350
     H     0.1353736000   -0.0397816111    6.6526269372
     C    -0.4704592653    1.8007474403    4.6242083876
     H    -1.2838296613    2.2005130529    4.0042512649
     H    -0.1720183979    0.8390431365    4.1928808976
     C    -0.9881979435    1.5919982798    6.0449964149
     H    -1.9059065138    0.9929271570    6.0240823810
     H    -1.2292653929    2.5566881624    6.5026063211
