42
-9.0969114190747382e+02 frame 43   xyz file generated by TeraChem
    Cr     4.2859109290    2.5379192226   15.2512242473
     C     4.4078360951    2.2215551729   19.9271594233
     H     3.9791548479    1.2759216615   20.2760375178
     O     5.9007559593    2.6669707838   14.3478215596
     C     6.6417823591    0.8705068753   15.7175046382
     H     7.0011203223   -0.1640348588   15.7721540971
     H     7.3234897284    1.5008324335   16.2959600999
     N     5.2760707838    1.0025682293   16.3495243815
     H     4.7610922306    0.1449402969   16.1503765261
     C     5.2820180206    1.2114169540   17.8348905612
     H     6.3081850500    1.4428951671   18.1357288442
     H     5.0197993427    0.2684376477   18.3285240072
     C     6.5501488256    1.4181629332   14.2898598030
     H     7.5596265058    1.5342989685   13.8726939962
     H     6.0088533430    0.7118248566   13.6393438452
     C     4.3504038268    2.3263788558   18.3853319220
     H     5.4391488019    2.2738187181   20.2923515661
     O     3.3689385297    4.0541434277   14.4502304571
     C     4.5271112634    5.3454890423   16.0627691752
     H     5.2579864978    6.1446162603   16.2333651144
     H     3.6153191510    5.5945416212   16.6140574509
     N     5.0242566561    4.0247913432   16.5674702923
     H     6.0115162164    3.9586854840   16.3195026468
     C     4.8360745395    3.7587709765   18.0228182767
     H     4.1010391361    4.4741950044   18.4058516645
     H     5.7738517522    3.9596697731   18.5541651818
     C     4.1801395745    5.1930480478   14.5665857314
     H     3.6570222533    6.0814971425   14.1916945965
     H     5.0984741865    5.0536817456   13.9741453038
     H     3.8464740482    3.0350732622   20.3991290139
     O     3.2330571386    1.4392256182   13.9868782502
     C     1.7379271069    1.2600379577   15.8776988033
     H     0.6835691312    1.3138777023   16.1764663554
     H     2.1290507322    0.2859071048   16.1876225042
     N     2.5658599121    2.3073658685   16.5368512968
     H     2.0973647412    3.2048945818   16.4104053796
     C     2.8696562342    2.0948372704   17.9820497883
     H     2.5962642975    1.0671646780   18.2435968580
     H     2.2306976081    2.7495696456   18.5857850722
     C     1.8908875547    1.4103983865   14.3550337444
     H     1.3540354398    0.6196217668   13.8139422032
     H     1.4478873356    2.3785513451   14.0487736079
