22
-1.7948692763688348e+03 frame 43   xyz file generated by TeraChem
    Fe     3.1908890890    6.6948809044    1.4020911542
     S     4.2577448321    6.3646825424    3.5391885161
     S     1.3950332014    8.3431913914    2.9782480903
     S     3.6379585326    8.8216692401    0.3276910803
     O     0.9156144959    7.0387066608   -1.4624197375
     O     1.4641395103    3.8915768565    2.8280411575
     N     4.1825843850    4.4464035766   -0.7360516079
     C     1.3302432506    6.8677349197   -0.4126316138
     C     1.7885163991    4.8263120527    2.2596808377
     C     3.8429860557    5.2714648620    0.0233324098
     C     3.8394991899    7.9436372913    4.3812984192
     H     4.2870207518    7.9237141968    5.3841466277
     H     4.2997617538    8.7771672192    3.8383351244
     C     2.3387760134    8.1879463029    4.5514017218
     H     2.1456766126    9.0890964392    5.1501024935
     H     1.8779086359    7.3376034767    5.0646168104
     C     2.2533654038    9.9233178229    0.8355025516
     H     2.4959899218   10.9433952783    0.5110798371
     H     1.3274277544    9.6443069923    0.3121464503
     C     1.9887983124    9.9696949058    2.3426995278
     H     1.2302651200   10.7259604449    2.5852785981
     H     2.9133837592   10.2189067160    2.8709100045
