13
-7.2149886565946781e+02 frame 29   xyz file generated by TeraChem
     O     3.7900376541    5.2188338138   -1.4653059518
    Fe     0.7805667613    4.5554331792   -0.0007655846
     N     2.1634045260    6.0496582435    2.7261363222
     N     1.4622133021    1.5082228773    1.3552567811
     C     2.8102495429    4.8581191267   -1.0024088578
     C     1.6832051868    5.5284625958    1.7908478624
     C     1.2356386890    2.5613109565    0.8897090732
     C    -1.2486490443    4.2573632919    1.0026060246
     O    -2.2284786778    3.9012228611    1.4688883540
     C    -0.1196595056    3.5826947023   -1.7933037784
     N    -0.5981683171    3.0610965661   -2.7292319606
     C     0.3226868018    6.5503124732   -0.8890356461
     N     0.0935541287    7.6033743730   -1.3533937555
