13
-1.7890621699028809e+03 frame 37   xyz file generated by TeraChem
    Fe     4.6473911895   11.6966007166    3.8713610819
     N     3.3804744663   14.5210123619    2.8352240432
     O     6.4790688109   13.6140391709    5.9046993259
     O     2.3018095678   10.7579297292    6.0642585248
     O     6.8937795434   11.2666011344    1.4075133106
     S     3.7016070886    9.5954371260    2.7550171127
     S     5.7984643802    9.6675107360    4.8450538385
     S     4.9296562362    7.0066085085    3.7275090555
     C     3.8235632261   13.4990157313    3.1954600689
     C     5.9094465869   12.8897468217    5.2330575744
     C     3.1103725427   11.1949184228    5.3883259031
     C     4.7990820567    8.6711338311    3.7566190326
     C     6.1956760017   11.5271251914    2.2705957051
