23
-8.3658908413299719e+02 frame 36   xyz file generated by TeraChem
     C     1.9412180947    0.4010927385    2.1574153635
     C     1.3919620161    3.8612351663    1.7050087275
     C     3.2105099076    0.7650442808    1.4984731624
     C     4.3987143505    0.0820101850    1.9140727662
     C     4.3767884548   -0.8895260190    2.8994718325
     C     3.1561393565   -1.2320924249    3.5262387576
     C     1.9730851199   -0.6050542028    3.1657588674
     C    -1.3955186476    2.6003765932    0.7382353793
     C     0.7507189844    1.0471640485   -1.1146419628
     C     0.9099030961    3.8082763778   -1.0204930475
    Fe     0.7990241982    2.4413556614    0.3698804758
     H    -0.0205890967    0.7920741979    2.2182578319
     H     4.0313757710    1.9190614588    0.1473228161
     H     5.3340273996    0.3536731856    1.4247761966
     H     5.2978351079   -1.3911102665    3.1941348957
     H     3.1446560330   -1.9976382351    4.3014697810
     H     1.0359077227   -0.8726737046    3.6515385576
     N     0.8501045976    1.0439350111    1.7596406941
     N     3.1254383401    1.7039498239    0.5703967214
     N    -2.5222705970    2.5505787797    1.0656611454
     N     0.7256947186    0.2137564154   -1.9367731590
     N     1.0116381438    4.6218542659   -1.8558725400
     N     1.7343466505    4.6445547740    2.5051400889
