13
-8.0271689813379862e+02 frame 11   xyz file generated by TeraChem
    Fe     3.7056695288    3.7057053262   -0.0000085081
     C     5.7995697448    2.6123269165    0.0000440603
     O     6.7916151692    2.0837257251    0.0000162153
     C     3.7056586642    3.7056958045    2.3139345805
     O     3.7055984609    3.7057234961    3.4386259352
     C     4.7772702921    5.7607209028    0.0000054616
     C     2.6341453899    1.6506411979   -0.0000173913
     C     1.6118240148    4.7991467253   -0.0000258233
     O     5.3046647475    6.7541597440    0.0000162997
     O     2.1068046425    0.6571735593   -0.0000244233
     O     0.6198005866    5.3277877298    0.0000162025
     C     3.7057084908    3.7056687990   -2.3139457398
     O     3.7057716441    3.7056236428   -3.4386369702
