25
-4.6240676835918026e+02 frame 18   xyz file generated by TeraChem
     N     3.7257220729    3.7211662378    0.0143745658
    Fe     5.3591034503    5.3526171347    0.0005758938
     N     6.4411198447    4.2636102885    1.6949967215
     H     6.9688118510    4.8808054769    2.3171008857
     H     7.1251838568    3.5778667233    1.3666079143
     H     5.8213873371    3.7369915969    2.3154834858
     N     6.9944299159    6.9822944922    0.0217866230
     N     4.2009064129    6.5113975068    1.5983275715
     H     3.6383063325    5.9277721610    2.2219861197
     H     3.5367486803    7.1780015951    1.1973890628
     H     4.7849899269    7.0714000268    2.2239002101
     N     4.2797714384    6.4389395095   -1.7083338089
     H     3.7570575676    5.8178259640   -2.3307038860
     H     3.5934948818    7.1270964718   -1.3896468092
     H     4.9034383608    6.9603561434   -2.3292333252
     N     6.4924005931    4.2190603137   -1.6243793850
     H     7.0345554497    4.8238553419   -2.2464459168
     H     7.1682059058    3.5411874347   -1.2638279797
     H     5.8872829112    3.6792052216   -2.2481383216
     H     7.9253071971    6.6176569939   -0.1925936017
     H     6.8475436469    7.7489132697   -0.6387255289
     H     7.1002514415    7.4440724250    0.9280059141
     H     3.2619974457    3.6147853807    0.9195447042
     H     2.9605947833    3.8705955240   -0.6473100290
     H     4.0889988288    2.7899300904   -0.2007386037
