25
-4.6240964894274447e+02 frame 70   xyz file generated by TeraChem
    Fe    -0.0047380942   -0.0013738602    0.0036178556
     N    -0.3143101977    0.3562339021    2.2552970614
     H    -1.2970435639    0.4373966512    2.5259338157
     N     0.3953180467   -0.2537256047   -2.2493038024
     N    -0.3391000340    2.2314766083   -0.2763124910
     N     0.2379710340   -2.2363740395    0.3580329216
     N     2.2590556766    0.3331475555    0.2829534230
     N    -2.2331830074   -0.4325084717   -0.3666585375
     H    -2.7492786300    0.3994832660   -0.6620116018
     H    -2.4083383136   -1.1233191464   -1.1002531470
     H    -2.7414111820   -0.7807196150    0.4493459787
     H    -0.2856608320   -2.5641344703    1.1734985169
     H    -0.0730304249   -2.8353619645   -0.4106788509
     H     1.2066348802   -2.5124485554    0.5354988971
     H     0.4145678728    2.8282179850    0.0734182296
     H    -0.4373056086    2.4777970022   -1.2640737183
     H    -1.1867404742    2.5859750515    0.1738398028
     H     0.1216583558    1.2158142999    2.5983173174
     H     0.0640184590   -0.3838075213    2.8514929892
     H     1.1640543225    0.3244289303   -2.5969874554
     H     0.6519767643   -1.2084635801   -2.5119677146
     H    -0.4029785501   -0.0262464226   -2.8466545647
     H     2.5343349752    0.3911755619    1.2659869948
     H     2.8302981781   -0.4204600537   -0.1071885952
     H     2.6316621752    1.1841216698   -0.1455390589
