49
-9.2635679302333119e+02 frame 18   xyz file generated by TeraChem
    Fe     0.0727186897   -0.0000344664    0.0040912853
     N    -1.3570297091    1.0353031721   -1.3437691299
     N     1.4618588126   -0.9287523430    1.4408449537
     C    -2.1183236985   -0.0684391310   -2.0187496892
     C    -0.6346739000    1.9604199756   -2.2949007291
     C     1.7617142149    0.0127892587    2.5833848537
     C     0.8026819272   -2.2145119161    1.8526250034
     N    -0.0539636618   -1.4491980520   -1.6427516635
     N     1.4622932802    0.9286702276   -1.4323238521
     N    -0.0544139273    1.4491575796    1.6507037097
     N    -1.3575971963   -1.0352124582    1.3511452395
     C    -1.1605830693   -1.1024237984   -2.6098536734
     C     0.8034166820    2.2145013995   -1.8443873465
     C     1.3211693382    1.4396162755    2.2574844471
     C    -0.6355749166   -1.9603281968    2.3025409133
     C     1.3218782309   -1.4396991000   -2.2489924775
     C     1.7625826946   -0.0128829571   -2.5747558104
     C    -1.1614810712    1.1024754283    2.6173163302
     C    -2.1190742548    0.0685766960    2.0258215867
     H     2.3473889472    1.1680780989   -0.9811985645
     H    -0.6642524500   -1.5195382492    3.3011363009
     H    -1.1708517159   -2.9120740589    2.3733140552
     H     1.3517895725   -2.0601639084   -3.1528361277
     H     2.0002052182   -1.9007119548   -1.5227240728
     H     1.9997945819    1.9006509783    1.5315114279
     H     1.3507339488    2.0600335533    3.1613735146
     H     0.8299422577    2.8811835781   -0.9768689038
     H     1.3706433279    2.7035175854   -2.6452918220
     H    -0.7054493901   -0.7321674992   -3.5301828747
     H    -1.7149707609   -2.0057443493   -2.8809638192
     H    -0.2213014586    2.3938571054    1.2985111544
     H    -2.0328843766   -1.5949397453    0.8267832626
     H    -2.0325420820    1.5950076156   -0.8196730760
     H     2.8343296716   -0.0021494947   -2.7943672596
     H     1.2617541907    0.3626096215   -3.4688983612
     H    -1.7159005325    2.0058384523    2.8882197207
     H    -0.7067534030    0.7321651479    3.5378236814
     H    -2.7695809656   -0.3316007447    2.8130149230
     H    -2.7740162512    0.5177753776    1.2722854269
     H     1.3694858594   -2.7035380785    2.6538255910
     H     0.8295704358   -2.8812378693    0.9851533168
     H    -0.2210175243   -2.3939591051   -1.2907957455
     H     2.3470854550   -1.1681796935    0.9899893311
     H     2.8333660361    0.0020159101    2.8034629858
     H     1.2605094992   -0.3627153625    3.4773158780
     H    -1.1698849227    2.9121907513   -2.3658153917
     H    -0.6629986594    1.5196397058   -3.2935075788
     H    -2.7684871388    0.3318099085   -2.8061889425
     H    -2.7736007249   -0.5175945089   -1.2654775100
