19
-3.0698907133652783e+03 frame 21   xyz file generated by TeraChem
    Fe     0.0000519938    0.0000739769    6.7597723769
     S     1.6616625410    3.8912003674    4.2375525304
     N     0.7109590186    1.6549733047    5.6851829134
     C     1.1071390473    2.5875691028    5.0821401437
     N    -1.4789803533   -0.3114093472    5.3034034294
     C    -2.3075120205   -0.4883861948    4.4833285974
     S    -3.4665160713   -0.7365636331    3.3361565896
     N     1.3015052207   -1.2536356241    5.6995399917
     C     2.0353135916   -1.9593721111    5.1045783164
     S     3.0617646998   -2.9466918860    4.2732747915
     N    -0.7107938467   -1.6549050248    7.8342281469
     C    -1.1069508206   -2.5875946686    8.4371377283
     S    -1.6612362246   -3.8914190742    9.2816018126
     N     1.4786048280    0.3114905106    8.2162295253
     C     2.3070809219    0.4883225087    9.0364113125
     S     3.4659671316    0.7362239059   10.1836926605
     N    -1.3013807022    1.2537186530    7.8199466268
     C    -2.0351646745    1.9595259225    8.4148451104
     S    -3.0615137182    2.9468784124    9.2462648269
