45
-2.2982071652553077e+03 frame 28   xyz file generated by TeraChem
    Fe    -0.0002041689   -0.0000846481   -0.0000491419
     S     0.2472784832    0.4618666061   -2.5190072638
     S    -1.8746350089    1.7727682317   -0.1028135042
     N     1.2867410624    1.8643867896    0.1114280685
     C    -1.3269345771    1.3569850586   -2.8756987676
     C    -1.8153960532    2.3839057120   -1.8508163817
     C    -0.8520126855    3.0144629777    0.8050046204
     C     0.5696210207    3.1685216082    0.2685732796
     C     2.2295101170    1.8396790783   -1.0463707351
     C     1.5190795628    1.8056962703   -2.4024200127
     H    -1.2235397769    1.8416399317   -3.8519618464
     H    -2.0559397678    0.5500144783   -3.0039057784
     H    -2.8343469677    2.6801311727   -2.1181958179
     H    -1.2066591790    3.2900707295   -1.8690222254
     H    -1.3710347760    3.9771850907    0.7925336204
     H    -0.8561819915    2.6519884978    1.8375342941
     H     1.1289489833    3.8291641755    0.9416665955
     H     0.5534871712    3.6682041797   -0.7013617387
     H     2.9019926803    2.7079537828   -1.0273274706
     H     2.8461660288    0.9445177113   -0.9321086684
     H     2.2568458064    1.6210949300   -3.1875227954
     H     1.0273995854    2.7509414823   -2.6446553654
     H     1.8455267563    1.7185267871    0.9530305668
     S    -0.2476913790   -0.4619310863    2.5189078963
     C     1.3267322597   -1.3566406372    2.8756913705
     C     1.8155726878   -2.3834016387    1.8507866202
     S     1.8745840735   -1.7723215868    0.1027667301
     N    -1.2869418053   -1.8646996751   -0.1114676911
     C    -0.5694332244   -3.1686015022   -0.2684661974
     C     0.8521642722   -3.0142878477   -0.8049460930
     H     1.3713341743   -3.9769292886   -0.7923825113
     H     0.8562764990   -2.6519047880   -1.8375056704
     H    -1.1285677940   -3.8295398604   -0.9414406790
     H    -0.5531058814   -3.6681672157    0.7015250537
     C    -2.2296896501   -1.8400843113    1.0462935733
     C    -1.5191854203   -1.8060107594    2.4023622546
     H    -2.2569722727   -1.6216295670    3.1874954746
     H    -1.0272941858   -2.7511699369    2.6444818749
     H    -2.9020739297   -2.7084358960    1.0273333993
     H    -2.8464588507   -0.9449917889    0.9320677822
     H    -1.8456363865   -1.7189680256   -0.9531521140
     H     2.8346287676   -2.6792527815    2.1181846269
     H     1.2071595259   -3.2897822569    1.8690142913
     H     1.2233767410   -1.8413936321    3.8519083596
     H     2.0555004207   -0.5494823427    3.0040052315
