33
-9.9763179569710337e+02 frame 77   xyz file generated by TeraChem
     O     0.8379721446    5.8801249798   -2.2262070587
     O     3.3837874680    6.5205787390   -2.0787225852
     O     3.2860599215    4.8485971174    0.2916180032
     O     0.9371632566    6.8045011530   -0.1568407987
     C    -1.1057520921    5.8013930545   -0.8798109860
     C     0.3668702601    6.1855295701   -1.1294445693
     N    -1.3953071295    5.9696048565    0.5990616986
    Fe     3.0755997318    6.9869463933   -0.0314479490
     O     2.8137945176    7.1453845861    2.0798768447
     O     2.7951670877    9.1006966016   -0.5893477422
     O     5.1916730674    7.3976972541    0.0961636195
     C     5.8592188667    7.1910592963    1.1726376304
     O     5.4341809467    6.8821150600    2.2893652430
     C     7.3873766844    7.3636075892    1.0420164086
     N     7.7179384863    7.6251188096   -0.4156241990
     H     1.8782134532    9.3583385483   -0.7828965105
     H     3.1967509831    9.8464415013   -0.1146554656
     H     3.7605869451    7.0528584311    2.3975868461
     H     2.4588795442    7.9439266163    2.5018541858
     H    -2.2852218889    6.4402463670    0.7957111652
     H    -1.3975517820    5.0747652436    1.1010425131
     H    -0.5937759368    6.5374575827    0.9521930724
     H     3.6045206457    4.3444317649   -0.4756784287
     H     3.7549233749    4.5137650508    1.0735621087
     H     2.4565423001    6.2541639047   -2.3642791268
     H     3.6367265299    7.2608088944   -2.6556170174
     H     6.7816809424    7.6960855844   -0.8751719235
     H     8.2456417860    8.4917828620   -0.5658809400
     H     8.2467491107    6.8611308903   -0.8503391711
     H    -1.2981200462    4.7711077783   -1.1787836473
     H    -1.7676573624    6.4626903236   -1.4429918588
     H     7.9083373998    6.4676154685    1.3812147270
     H     7.7237220190    8.2105438437    1.6426624373
