30
-9.9753045594904006e+02 frame 88   xyz file generated by TeraChem
    Fe     9.0803384082    3.1780886541   10.6070172760
     N    10.1760896705    3.4008977602    8.5814067891
     N     8.3147803026    5.2799338432   10.3659279746
     O     7.5596905837    3.0620154262   13.5900867753
     O    10.5882864592    0.3733592110   10.9941027208
     O    10.7492571710    4.6663926393   11.2644961629
     O     6.9172916204    1.8282587434    9.3173311536
     C     8.2258251519    3.1183906991   12.6727949915
     C    10.1292602421    1.4083873961   10.8923901519
     C    10.4574966600    3.2136010720    7.4720755544
     C    10.8088775225    2.9697543305    6.0788271436
     H    11.6107099650    2.2270212377    6.0208579402
     H    11.1453182820    3.8979605167    5.6066585591
     H     9.9348126635    2.5912494212    5.5390644241
     C    10.2916350807    6.0002168043   11.5484764820
     H    11.0887919425    6.7270759224   11.3621546059
     H    10.0789577673    6.0159252750   12.6227282855
     C     9.0356096515    6.3377689115   10.7665361976
     C     8.6171203236    7.6439544337   10.5276777836
     H     9.2197502251    8.4867081473   10.8524615565
     C     7.4029433371    7.8384186891    9.8658033715
     H     7.0455631305    8.8437569104    9.6642812180
     C     6.6534407714    6.7341717019    9.4648438189
     H     5.7044870857    6.8608152961    8.9533334074
     C     7.1409098049    5.4520888858    9.7301144291
     C     6.3989593427    4.1923774382    9.3424708632
     H     6.1300473469    4.1868434384    8.2775098832
     H     5.4499761537    4.1148045197    9.8937432889
     C     7.2278020668    2.9435897798    9.6653613657
     H    11.2898356542    4.6871097880   10.4563867629
