27
-1.5747935598378588e+03 frame 57   xyz file generated by TeraChem
    Fe     8.3495273887    6.9904396158    5.2197835871
    Cl     7.4322536409    6.1254716930    7.0741784646
    Cl     7.7094929088    5.4838202723    3.6788814235
     N    10.2727560112    6.0181189912    5.5662336362
     N     6.6746538494    8.3123492810    4.7982095730
     N     9.4299417046    8.0899962702    3.5558744531
     N     9.1634609658    8.6976074277    6.4121185311
     C     5.6257143499    8.7571365149    4.6034060932
     C    11.1142983791    5.2578876384    5.7898914203
     C     9.4894800981    9.4846952601    7.1940132199
     C     9.9107444693    8.4817505047    2.5798031107
     C     4.2965649392    9.2983255902    4.3592829724
     C    12.1592537368    4.2853792649    6.0759148511
     C     9.8925692289   10.4661590782    8.1926599991
     C    10.5097300610    8.9603594705    1.3404794035
     H     3.8873752868    8.8666245220    3.4404581136
     H     4.3442110483   10.3866229333    4.2561605016
     H     3.6384961472    9.0445673184    5.1964134857
     H    11.7451617685    3.4783921746    6.6889873543
     H    12.9806011137    4.7626888166    6.6188884564
     H    12.5413688389    3.8632768435    5.1413498461
     H     9.7054643007   10.0682111104    9.1950592230
     H     9.3189223246   11.3889390400    8.0626445870
     H    10.9584763262   10.6912164342    8.0897109615
     H     9.9854302517    9.8558011221    0.9928239954
     H    10.4361422838    8.1838324897    0.5725924437
     H    11.5638465341    9.2053291863    1.5023114999
