43
-2.9833526392496706e+03 frame 14   xyz file generated by TeraChem
    Fe    -0.8189325381    4.4962773361    9.5435038127
     S    -1.3407636841    2.0006191343    9.4273575371
     C    -0.1402984483    1.4079287960   10.7102815267
     C    -0.1269793334    2.1673094413   12.0367854172
     S     0.1310943493    4.0003168607   11.8533507597
     C    -1.2102853823    4.7666042229   12.8781692990
     C    -2.6479861837    4.4079365003   12.5056283578
     S    -3.0673760210    4.7261754637   10.7209463269
     C    -3.8463490339    3.1463808507   10.1395029412
     C    -2.9985360029    1.8811780109   10.2618073488
     H     0.8293056785    1.4500840998   10.2045829069
     H    -0.3590965216    0.3495572880   10.8932527449
     H    -1.0363073717    2.0103307064   12.6205770686
     H     0.7116026221    1.8014398075   12.6398920958
     H    -1.0219105462    5.8418092365   12.7973601259
     H    -1.0183323084    4.4884397181   13.9209821684
     H    -2.8947759490    3.3676064787   12.7270123818
     H    -3.3276469714    5.0343358309   13.0941820756
     H    -4.1241224001    3.3559725311    9.1018221557
     H    -4.7799870131    3.0205657761   10.6999325338
     H    -2.8294147586    1.5909893676   11.3005965164
     H    -3.5283291947    1.0554439181    9.7737842889
     S    -0.2973330599    6.9922257880    9.6595226608
     S    -1.7689583626    4.9924003691    7.2335647448
     S     1.4296148675    4.2668605431    8.3658500762
     C    -1.4978175783    7.5848190156    8.3766115417
     C     1.3603917578    7.1118682835    8.8250278672
     C    -1.5111231927    6.8254269458    7.0501169374
     C    -0.4275693838    4.2262569330    6.2086819264
     C     1.0101350988    4.5849553830    6.5811749857
     C     2.2083793479    5.8467722759    8.9472051131
     H    -2.4674274949    7.5426664670    8.8822978730
     H    -1.2790526938    8.6431929123    8.1936054738
     H     1.1912142008    7.4021155410    7.7862630661
     H     1.8901202022    7.9376220812    9.3130899192
     H    -0.6018620276    6.9825228096    6.4662494833
     H    -2.3498004100    7.1911840785    6.4470739280
     H    -0.6158850616    3.1510363955    6.2894290598
     H    -0.6195731330    4.5044640429    5.1658889539
     H     1.2569476709    5.6252582967    6.3596739142
     H     1.6897627048    3.9584877694    5.9926537446
     H     2.4863445345    5.6372151581    9.9848422543
     H     3.1419215274    5.9727390422    8.3866489101
