43
-3.2566165628482049e+03 frame 29   xyz file generated by TeraChem
    Fe     9.7898057884    4.6005703492    3.7872065803
    Cl    11.8644995604    4.1502655863    4.9218456301
    Cl    10.7930833240    4.8409873931    1.6098899268
     S     9.1544304186    3.6841273424    6.7973812266
     S    10.6236018727    1.7060926241    2.9557718586
     S     7.4577299793    4.4181721278    1.6020414853
     S    11.3689957662    7.3099762351    3.7504813182
     O     9.4497216080    2.5992336296    3.5045104482
     O     7.9199456423    4.9134575348    3.0059646799
     O    10.0181584471    6.5929866827    4.1009324012
     O     8.7306817034    4.5025376455    5.5405061460
     C     7.4570031402    5.9041949665    0.5548234391
     H     6.9211525259    6.7078861856    1.0660466120
     H     6.9885025799    5.6598537804   -0.4031358719
     H     8.5059779554    6.1652769162    0.4059847229
     C     9.9266016589    4.8878417478    7.9211212757
     H    10.8830256005    5.1522750205    7.4673785718
     H    10.0891452115    4.4078805832    8.8906707851
     H     9.2795927715    5.7635795340    8.0148822421
     C     7.5674978065    3.4680819169    7.6583434410
     H     7.0727338326    4.4377291607    7.7530652855
     H     7.7514222300    3.0197906272    8.6389698385
     H     6.9615202207    2.7945412802    7.0488685469
     C     5.6646773820    4.2286042930    1.8360842481
     H     5.5187723150    3.3937906982    2.5247286385
     H     5.1998905353    4.0027185812    0.8719676394
     H     5.2577104719    5.1467333303    2.2664010633
     C     9.7722236118    0.6309758444    1.7648025406
     H     8.9108422036    0.1557324610    2.2404649001
     H    10.4809307261   -0.1160654770    1.3958915108
     H     9.4515296902    1.2722387582    0.9412552181
     C    10.9127182679    0.5092303702    4.2912479765
     H    11.3631066137    1.0722363844    5.1111730641
     H    11.6134762860   -0.2510562745    3.9337435589
     H     9.9657367003    0.0594566962    4.6000810491
     C    11.6553265791    8.3550185276    5.2092153652
     H    10.7524284276    8.9238575905    5.4442671869
     H    12.4997977774    9.0196774813    5.0045837012
     H    11.9100923034    7.6815641904    6.0298372520
     C    10.8701512277    8.5908417467    2.5626376816
     H    10.6172093737    8.0683319805    1.6383626096
     H    11.7189624931    9.2588338802    2.3892745305
     H    10.0075934376    9.1384289361    2.9504158174
