37
-9.1945503152018637e+02 frame 35   xyz file generated by TeraChem
     C    -3.3220177783   -2.6124703919    0.7499196586
     C    -2.0412250325   -0.5381946040    1.6311560774
     C    -6.3946103962   -3.5117488464    0.8158552477
     C    -8.5431342715   -2.4204501700    1.7718738642
     C    -4.1450518665   -5.4459923491    1.9712518478
     C    -3.7466868998   -6.6352630544    4.2406207492
    Fe    -4.4858061065   -4.4149786144    0.0018079952
     N    -2.7476610813   -1.6819685414    1.1441813424
     N    -7.3583792424   -3.0221919081    1.2438153100
     N    -3.9660465073   -5.9784150162    2.9897530952
     C    -5.6472136271   -6.2185944221   -0.7479101327
     C    -2.5766936312   -5.3192429245   -0.8137519515
     C    -4.8257537811   -3.3845301774   -1.9680868110
     N    -6.2205956510   -7.1495998270   -1.1424306945
     N    -1.6126374861   -5.8058548655   -1.2444415866
     N    -5.0051793440   -2.8532850137   -2.9871359973
     C    -6.9254667740   -8.2940220854   -1.6301426269
     C    -0.4275386470   -6.4029890082   -1.7769096394
     C    -5.2253763217   -2.1980619749   -4.2387147757
     H    -4.0395336156   -7.6841821624    4.1519234496
     H    -2.6869816110   -6.5687046941    4.4987836358
     H    -4.3459563758   -6.1476745041    5.0132521440
     H    -8.6684565462   -1.4286990049    1.3308459399
     H    -9.4034572867   -3.0466439561    1.5234818259
     H    -8.4490895952   -2.3348513003    2.8570397831
     H    -2.3979007984    0.3528073385    1.1089067658
     H    -2.2211100111   -0.4359314003    2.7040032465
     H    -0.9727511738   -0.6724254843    1.4461590040
     H    -4.6279266046   -2.6877122435   -5.0114518270
     H    -6.2855373153   -2.2635732181   -4.4952820789
     H    -4.9309366632   -1.1494152881   -4.1520848438
     H     0.4214138996   -6.1436508791   -1.1397547925
     H    -0.5531051033   -7.4881284897   -1.8011324670
     H    -0.2595203866   -6.0267230052   -2.7888035435
     H    -7.9943758145   -8.1603089965   -1.4473138714
     H    -6.7434589619   -8.3967715057   -2.7025880415
     H    -6.5693368743   -9.1845508260   -1.1067114994
