47
-1.6125315014898124e+03 frame 20   xyz file generated by TeraChem
    Fe    -0.0000592507   -0.0001136914    0.0000405387
     S    -0.2327965728   -1.0206012726   -2.4206250729
     N    -1.6458546799    1.3039747405   -0.7275996880
     N     1.1821246473    1.4857116090   -1.2232083185
     C     2.0188745809    0.7720264258   -2.2240168278
     C     1.2061846596   -0.1238523757   -3.1766951488
     C    -1.6808589696    0.0234320487   -2.9434431972
     C    -2.4679788298    0.6630810781   -1.7944425998
     C    -1.0320493118    2.6289936570   -1.0430967071
     C     0.2650141700    2.4940809308   -1.8382002856
     H     2.6013737803    1.4756683688   -2.8341078024
     H     2.7413232726    0.1668279698   -1.6672665505
     H     0.8139156714    0.4285463001   -4.0335440815
     H     1.8605390034   -0.8968302807   -3.5887085562
     H    -2.3528339967   -0.6363928160   -3.4988432969
     H    -1.3099858181    0.7633489029   -3.6544857297
     H    -3.1741235034    1.3865804760   -2.2243609889
     H    -3.0650143203   -0.1067518367   -1.2949685426
     S     0.2327769142    1.0206662362    2.4204442202
     C    -1.2061969106    0.1239762139    3.1766091852
     C    -2.0188753393   -0.7720163124    2.2240447959
     N    -1.1821130037   -1.4858257934    1.2233263729
     N     1.6457884227   -1.3041492213    0.7275273196
     C     2.4679515685   -0.6630848362    1.7942414515
     C     1.6808948021   -0.0233258041    2.9432295225
     H     2.3529109662    0.6365758923    3.4984915444
     H     1.3100935211   -0.7631516644    3.6544018695
     H     3.1741415652   -1.3865025201    2.2242268713
     H     3.0649408976    0.1066978524    1.2946371612
     C     1.0320484567   -2.6291287894    1.0432722405
     C    -0.2649790261   -2.4941011530    1.8384407660
     H    -2.6013926433   -1.4755811903    2.8342135846
     H    -2.7413203781   -0.1668976924    1.6672059256
     H    -0.8139274384   -0.4282975935    4.0335412727
     H    -1.8605568391    0.8970041018    3.5885243728
     H     0.0541381202    2.1878771206   -2.8625354560
     H     0.7520077301    3.4734823056   -1.9031162519
     H    -0.8244071152    3.1116976592   -0.0833310665
     H    -1.7355476352    3.2688619136   -1.5911221319
     H    -1.8134737254   -1.9830345133    0.5940941905
     H    -0.7519826498   -3.4734826934    1.9035503973
     H    -0.0540296990   -2.1877087993    2.8627023206
     H     1.7355968594   -3.2688857201    1.5913617710
     H     0.8243517926   -3.1119997642    0.0836013817
     H     2.2851870638   -1.4760911745   -0.0482230382
     H     1.8134836458    1.9828221676   -0.5939003868
     H    -2.2853088282    1.4758728641    0.0481156049
