35
-9.2531461485713339e+02 frame 41   xyz file generated by TeraChem
    Fe    -0.0003057217   -0.0001607322   -0.0001648182
     O     0.3061849519    2.1271714767    0.3597687437
     O     2.1354280016   -0.3990408964    0.1707572308
     N    -0.2863594704   -0.3150807247    2.1494038538
     C    -1.0830507652    0.4966498702    2.8829007057
     C    -1.2779214488    0.3311717680    4.2499897574
     C    -0.6247293484   -0.7164040339    4.9018829210
     C     0.2005956077   -1.5609232993    4.1562847059
     C     0.3404579944   -1.3271429290    2.7931348622
     H     0.6089597810    2.7685204549   -0.3031758432
     H     0.5032491889    2.5019219231    1.2336293896
     H     2.7761966165   -0.0009579940   -0.4431486340
     H     2.5942897879   -0.4702153156    1.0253286442
     H    -1.5764828794    1.3021442797    2.3455859725
     H    -1.9289200319    1.0116270781    4.7888128418
     H    -0.7558090525   -0.8717919494    5.9684068488
     H     0.7273115964   -2.3882188593    4.6203188460
     H     0.9725133236   -1.9688628506    2.1839568226
     O    -0.3077596620   -2.1276875179   -0.3591492514
     H    -0.6113735136   -2.7682103819    0.3041916608
     H    -0.5060206527   -2.5024644752   -1.2327384185
     O    -2.1359455509    0.3981541769   -0.1716814987
     H    -2.7766358620    0.0002059733    0.4424006196
     H    -2.5941044953    0.4665663500   -1.0268750426
     N     0.2866658817    0.3154294601   -2.1494540974
     C     1.0844670572   -0.4955373168   -2.8826099992
     C     1.2797807960   -0.3297786202   -4.2495941994
     C     0.6258257496    0.7171808734   -4.9017059311
     C    -0.2007022136    1.5608367315   -4.1564579549
     C    -0.3409588994    1.3268867513   -2.7933827400
     H    -0.9738597687    1.9679765136   -2.1844203360
     H    -0.7280509471    2.3876064213   -4.6207092791
     H     0.7572131375    0.8727485384   -5.9681650242
     H     1.9316590614   -1.0095774594   -4.7881778926
     H     1.5781991506   -1.3007305341   -2.3451368068
