37
-9.1965187349755365e+02 frame 28   xyz file generated by TeraChem
    Fe    -0.7561919768    9.1171562651    8.5924686007
     N     1.3820231408    9.4601079702    8.2954885751
     N    -0.5421002059    7.1616683725    7.6127500843
     N    -1.1601344008   10.0606631515    6.6487852699
     C     3.9324169144    9.8883453915    7.9166526624
     H     4.3999447914   10.2059550813    8.8542590647
     H     4.0713365571   10.6722886387    7.1652797655
     H     4.4173758447    8.9704931377    7.5690754788
     C     2.5113063747    9.6494950957    8.1276084897
     C    -0.3229445474    4.8266710887    6.4565008133
     H    -1.2559374784    4.2657971600    6.5717587950
     H     0.4919865793    4.2579839255    6.9156674193
     H    -0.1127653887    4.9533456437    5.3897982649
     C    -0.4446446655    6.1284641189    7.1001236395
     C    -1.6178472465   11.1938827223    4.3372658487
     H    -2.6759931801   11.4629871278    4.2575805414
     H    -1.3640487547   10.5047261305    3.5255760546
     H    -1.0123876646   12.1004746169    4.2385005262
     C    -1.3627359900   10.5622575267    5.6254955664
     N    -2.8945347002    8.7742903519    8.8895354060
     N    -0.9702250286   11.0726004102    9.5724334720
     N    -0.3525342154    8.1736503779   10.5362274271
     C    -5.4450447105    8.3466833519    9.2682991867
     H    -5.9127295734    8.0295245254    8.3306175186
     H    -5.5841300608    7.5625260984   10.0194152034
     H    -5.9297289740    9.2645499016    9.6162247167
     C    -4.0238797228    8.5852073699    9.0573381443
     C    -1.1895498575   13.4070461634   10.7297692301
     H    -0.2566064751   13.9680521077   10.6147533173
     H    -2.0045488068   13.9758978635   10.2709236609
     H    -1.3996741637   13.2798250215   11.7964162991
     C    -1.0677718781   12.1055723021   10.0855105933
     C     0.1051038691    7.0406301693   12.8478629017
     H     1.1632182902    6.7713965098   12.9275571614
     H    -0.1486006540    7.7298871601   13.6594938552
     H    -0.5004667105    6.1341219620   12.9467110811
     C    -0.1499455230    7.6721668535   11.5595733687
