37
-9.1965053651387734e+02 frame 23   xyz file generated by TeraChem
    Fe     4.6667248766   -0.0001496811   -0.0002038288
     N     2.8817678862   -0.6740771488    1.0663347052
     N     5.7201654851   -1.8055744563    0.6757816140
     N     5.3402713217    1.0541350500    1.8052894907
     C     1.9322984357   -1.0284499613    1.6250980547
     C     0.7376439273   -1.4734900727    2.3291216038
     H    -0.1553041097   -1.2045167396    1.7558718351
     H     0.6868075253   -0.9974278390    3.3136117711
     H     0.7645888859   -2.5601336982    2.4592459882
     C     6.2859259965   -2.7523421591    1.0270702190
     C     6.9992199699   -3.9444053289    1.4672402941
     H     7.8392043351   -4.1447638412    0.7944435232
     H     6.3256031770   -4.8071401838    1.4610186971
     H     7.3831186002   -3.7983040730    2.4818129329
     C     5.7038043385    1.6165393070    2.7494143593
     C     6.1602940568    2.3259534908    3.9376693135
     H     5.6112216235    3.2666166219    4.0460125712
     H     7.2295139443    2.5451161862    3.8537283738
     H     5.9928106290    1.7104999335    4.8272730394
     N     6.4518047017    0.6742017602   -1.0658325234
     N     3.6132751477    1.8050824853   -0.6760744168
     N     3.9922912071   -1.0547005717   -1.8052056912
     C     7.4014307364    1.0288427194   -1.6241594163
     C     8.5962383949    1.4742231797   -2.3277125106
     H     9.4890583327    1.2052939933   -1.7542471620
     H     8.6474295664    0.9983629429   -3.3122841970
     H     8.5691362427    2.5608869139   -2.4576458925
     C     3.0477486887    2.7517941237   -1.0278910222
     C     2.3347936978    3.9437376101   -1.4689423952
     H     1.4945963736    4.1446065732   -0.7965666068
     H     3.0085518735    4.8063650917   -1.4629606593
     H     1.9512630717    3.7971374196   -2.4835825853
     C     3.6281195446   -1.6168590898   -2.7492307844
     C     3.1706332988   -2.3257833302   -3.9373863986
     H     3.7191878697   -3.2666801436   -4.0463008851
     H     2.1013499290   -2.5444231486   -3.8528986577
     H     3.3379012927   -1.7101710067   -4.8269243568
