49
-9.2688529376958581e+02 frame 36   xyz file generated by TeraChem
    Fe     7.2138973486    3.3873109815    1.4350846882
     N     5.9959069739    1.7467523238    0.7704253200
     N     8.9309581372    2.1060783895    1.7860284355
     N     8.5136043755    5.0380284384    1.9342582599
     N     5.4490178331    4.6096109221    1.3081798017
     N     6.7662388095    2.4383148505    3.4755904350
     N     7.5690629235    4.3651251546   -0.6111186111
     C     5.8983589427    0.7851615273    1.9117076911
     C     6.9578195396    1.0252452591    3.0261924678
     C     8.4432699910    0.9138478164    2.5546926260
     C     9.8814888043    3.0204649653    2.4941431504
     C     9.8727705531    4.4181133867    1.8558263430
     C     8.2146176644    6.1381579499    0.9605896900
     C     7.2072003298    5.7465571392   -0.1684710478
     C     5.7178620504    5.6632165911    0.2785629548
     C     4.3303633803    3.6416408651    1.0755591049
     C     4.7415529685    2.3947959865    0.2725248364
     C     6.7187756983    0.0046575076    4.1495484036
     C     7.3179168580    6.7843033857   -1.2961761325
     H     6.4113080524    1.2540758694   -0.0185757237
     H     9.3916723233    1.7758310535    0.9388750858
     H     8.3875718749    5.3954472991    2.8801761303
     H     5.2572934800    5.0788529730    2.1912290253
     H     7.3822902188    2.6398518249    4.2660469262
     H     5.8206979785    2.5477389550    3.8488122356
     H     8.5167446951    4.3586727996   -0.9950564770
     H     6.9697275947    4.0930034923   -1.3931176515
     H     4.9048427778    0.8797565322    2.3646042680
     H     5.9775272655   -0.2433966404    1.5457217773
     H     9.0772260194    0.7657186285    3.4363388681
     H     8.5612335779    0.0194504769    1.9360996662
     H     9.5795193045    3.0830818689    3.5446525915
     H    10.9015429457    2.6184130584    2.4805653295
     H    10.1444764510    4.3406076547    0.7984606613
     H    10.6277527511    5.0502875018    2.3382126966
     H     7.8207535759    6.9985707038    1.5093785364
     H     9.1484280262    6.4715099333    0.4936530456
     H     5.1116375592    5.4483943545   -0.6091247726
     H     5.3899644436    6.6393680777    0.6491894466
     H     3.4849636520    4.1210148157    0.5670284637
     H     3.9745242261    3.3397244802    2.0653423070
     H     3.9001652130    1.6908532628    0.2699396972
     H     4.9307626444    2.6668562841   -0.7705181587
     H     7.3771164894    0.2005997968    5.0024706768
     H     6.9150711967   -1.0170156045    3.8063162843
     H     5.6833740419    0.0426054253    4.5050041039
     H     7.0866400078    7.7916998689   -0.9328469494
     H     8.3320561710    6.8060093888   -1.7089660431
     H     6.6246692869    6.5598024632   -2.1140501838
