19
-6.8346964946710818e+02 frame 29   xyz file generated by TeraChem
    Fe     0.0001470857    0.0004052821    0.0002602159
     N    -2.4279033341    0.9449367516    2.2396026966
     C    -1.6100767863    0.6092908223    1.4889925989
     H    -3.1395437234    1.2358373898    2.8927250134
     N     0.0638314219   -3.1679285616    1.3322078156
     C     0.0304860651   -2.0937404873    0.8965118344
     H     0.0917517714   -4.1026067077    1.7106773679
     N     2.3965020095    0.9778058708    2.2287407977
     C     1.5833307657    0.6471263949    1.4699781061
     H     3.1029025181    1.2663849333    2.8880473923
     N     2.4261979397   -0.9459420025   -2.2414107181
     C     1.6091874502   -0.6097574848   -1.4901478448
     H     3.1371945120   -1.2375193824   -2.8949476295
     N    -0.0639425165    3.1696829763   -1.3296210140
     C    -0.0305703695    2.0953652870   -0.8942361650
     H    -0.0919098426    4.1046155048   -1.7074659495
     N    -2.3948596445   -0.9786542549   -2.2297158962
     C    -1.5819598733   -0.6473858976   -1.4709230964
     H    -3.1007977549   -1.2678998784   -2.8892833631
