19
-2.6553432094050763e+03 frame 58   xyz file generated by TeraChem
    Fe     8.8743062773   -9.8699670265   16.0432639226
     S     9.7437935632   -8.9670296508   20.7895736775
     S    13.5945213821  -10.6665785411   15.3864571173
     S     7.0170816659  -14.2600741722   16.5751187967
     S     8.2969641670   -9.1612022191   11.2878754447
     S     4.7017992899   -7.3226133383   16.6367437382
     O     9.6214763598   -7.4726206258   16.0511346206
     H     8.6695467887   -7.2649521791   16.0299656095
     H     9.7906139049   -7.6137413918   17.0001467865
     N     9.2530458574   -9.4739693001   18.0594093858
     N    10.8290751939  -10.2996778843   15.7735967131
     N     8.0949487573  -11.6793946441   16.2691026905
     N     8.6066620305   -9.6454340787   14.0455740264
     N     7.0955726691   -8.7763538970   16.3019387709
     C     9.4563271786   -9.2681116155   19.2080398466
     C    11.9919735075  -10.4483891335   15.6095575235
     C     7.6398849704  -12.7664348674   16.3982865979
     C     8.4780905086   -9.4375433355   12.8875613535
     C     6.0865141889   -8.1727958325   16.4423980962
