39
-8.6658556806449496e+02 frame 26   xyz file generated by TeraChem
    Fe     1.9962337781    5.0465527994    3.4385665612
     O     4.0869960768    3.9352566120    0.8294497176
     N     4.9490035585    5.5571499824    4.6612801467
     N     1.8046680792    2.9512169177    4.3037407482
     H     0.8945915507    2.5017446123    4.1820597930
     H     2.4670361265    2.3526377133    3.8072566776
     N     1.0542115374    5.9195826831    5.2856522006
     H     0.0380004257    5.8124094496    5.2410756178
     N     1.7310052107    7.2135898281    2.7907361594
     H     2.7147470181    7.4816468418    2.8655098168
     N     0.0972003598    4.7029873844    2.2285753268
     H     0.0284037466    3.6943461764    2.0820158039
     H    -0.7273181097    4.9415510882    2.7843192991
     C     3.2119309551    4.2241731683    1.4896526024
     C     3.9278108814    5.3260523961    4.1397058281
     C     2.1555642219    2.9124841224    5.7572414502
     H     3.1909328062    3.2538041036    5.8371551208
     H     2.1119262193    1.8793016953    6.1222758562
     C     1.2451021395    3.7920528067    6.6198975910
     H     1.3955632329    3.4842286658    7.6613353528
     H     0.1870666927    3.5765011624    6.4023705371
     C     1.5083597321    5.2996747847    6.5590589202
     H     1.0116945535    5.7924727351    7.4069495547
     H     2.5816711806    5.4932601636    6.6488365743
     C     1.3617610435    7.3699726386    5.2286566231
     H     2.4371807039    7.4752613686    5.4051548047
     H     0.8359477965    7.9270384902    6.0162187394
     C     0.9941347396    7.9309969288    3.8593095730
     H    -0.0801058467    7.8040182955    3.6817300315
     H     1.1964273889    9.0104494165    3.8302555113
     C     1.2780834395    7.5576578165    1.4187133455
     H     2.0657047541    7.2278801587    0.7325174455
     H     1.1901161342    8.6480689989    1.3082214971
     C    -0.0477333806    6.9034213803    1.0160117070
     H    -0.8588047880    7.2109322861    1.6904865362
     H    -0.3214611910    7.3033907972    0.0326751504
     C    -0.0231130997    5.3791037522    0.9003470335
     H    -0.9290172547    5.0365278836    0.3861460914
     H     0.8343683103    5.0598065272    0.2991381709
