19
-3.0698906373807677e+03 frame 25   xyz file generated by TeraChem
    Fe     6.5781663772   10.1868738014    9.4278904130
     N     5.1575323896    9.3225414070   10.7031030623
     N     6.9219242642    8.3178917450    8.5402249901
     N     8.0716392646    9.8007990448   10.8506200709
     C     4.3601540129    8.8361591462   11.4229203319
     C     7.1179820537    7.2655134881    8.0457205438
     C     8.9095715035    9.5948831934   11.6543178642
     S     3.2453507430    8.1552572347   12.4293302709
     S     7.3922319328    5.7935308914    7.3540672756
     S    10.0823710861    9.3061598607   12.7774312198
     N     7.9987930818   11.0511277357    8.1528539266
     N     6.2343699577   12.0558938627   10.3152787574
     N     5.0844366557   10.5730496206    8.0053261919
     C     8.7960695973   11.5377810412    7.4330985961
     C     6.0384132432   13.1085500716   10.8092441003
     C     4.2463854688   10.7794332670    7.2018752324
     S     9.9107484857   12.2189309525    6.4267646731
     S     5.7643497810   14.5809437944   11.5000483113
     S     3.0734024017   11.0686661989    6.0790675376
