41
-1.6388253330307898e+03 frame 18   xyz file generated by TeraChem
    Mn     1.8313540553    6.2707176873    7.3894849337
    Cl     3.8648918715    7.2740528683    6.3429170830
    Cl    -0.2030429728    5.2663736840    8.4361043118
     N     3.1056611665    4.9939026225    8.4177970627
     C     3.0972873892    5.4672071852    9.8338417685
     C     3.1211151627    6.9931051750    9.8483920894
     N     1.9661123952    7.5061840540    9.0541875937
     C     2.0072800975    8.9722016327    8.8012675428
     C     0.8111223847    9.4613553509    7.9779748725
     C     0.7977061937    9.0085036871    6.5139416435
     N     0.5554972418    7.5475699766    6.3635013359
     C     0.5593950503    7.0728804035    4.9478505261
     C     0.5363516437    5.5469497879    4.9342771776
     N     1.6941315412    5.0350643711    5.7251707130
     C     1.6553138464    3.5690699740    5.9784020857
     C     2.8529942706    3.0817510953    6.8005477648
     C     2.8658981854    3.5328337351    8.2651445005
     H     4.0048678489    5.2401312040    7.9888912410
     H     3.9553373189    5.0597138075   10.3813456410
     H     2.1787765102    5.0882137553   10.2907649999
     H     4.0277949016    7.3717430612    9.3683380379
     H     3.0830687254    7.3735221570   10.8760570196
     H     1.0915424754    7.2632476358    9.5310174432
     H     2.0252535629    9.4892706620    9.7687805078
     H     2.9435457710    9.1783767742    8.2770385767
     H     0.8479627409   10.5563807002    7.9746188078
     H    -0.1327616285    9.1955887485    8.4749824029
     H     1.7574841662    9.2232323079    6.0364929219
     H     0.0111530078    9.5477651066    5.9708064530
     H    -0.3429964537    7.3031489818    6.7950571146
     H     1.4760816236    7.4521214916    4.4873659939
     H    -0.3685818276    5.1680964195    5.4174489776
     H     2.5670864179    5.2788873198    5.2458001273
     H     0.7198747944    3.3617501130    6.5036497509
     H     1.6369706000    3.0517232065    5.0109041236
     H     2.8186548742    1.9865969775    6.8026727391
     H     3.7960264763    3.3502164073    6.3035170624
     H     3.6533860225    2.9941444519    8.8074938460
     H     1.9065463605    3.3157569375    8.7424411953
     H    -0.3007042108    7.4795332079    4.4029103197
     H     0.5714596274    5.1660169978    3.9067029734
