31
-7.8746455861973163e+02 frame 50   xyz file generated by TeraChem
    Mn     5.0947910497    9.3556090130   10.0703202958
     O     3.3219395108   10.4787845178    9.3604045436
     N     6.4097046897   10.5856045281    8.7094980466
     N     4.8151224816    7.8181861784    8.4616997390
     C     7.0867123285   11.2174005891    8.0125183790
     C     4.7291043048    6.9872060729    7.6593491024
     C     7.9377672646   12.0109347211    7.1368813318
     C     4.6224057387    5.9419382504    6.6508252488
     H     3.3258359276   10.9895006552    8.5341267426
     H     2.4064955323   10.1842633810    9.4967933495
     H     7.4213394294   12.2051163644    6.1910660877
     H     8.8669033532   11.4696106855    6.9302298759
     H     8.1787819403   12.9658382166    7.6152433415
     H     4.4039657164    6.3857628971    5.6741384937
     H     3.8173284513    5.2488456889    6.9155573903
     H     5.5645458215    5.3875112292    6.5892118043
     O     6.8675475221    8.2312306091   10.7797800697
     N     3.7804997354    8.1258030622   11.4316802247
     N     5.3742556831   10.8932679188   11.6788696210
     C     3.1039243629    7.4937187238   12.1288153324
     C     5.4607313482   11.7243331121   12.4810885366
     C     2.2535114578    6.6998247039   13.0047635322
     C     5.5679761923   12.7696664068   13.4894769347
     H     6.8634916248    7.7216268067   11.6067583043
     H     7.7828689217    8.5263880279   10.6438780253
     H     2.7704745025    6.5057950698   13.9503314375
     H     1.3242914642    7.2407932099   13.2119302490
     H     2.0127218677    5.7448134349   12.5265109722
     H     5.7864921169   12.3258549583   14.4661579099
     H     6.3732343262   13.4624591547   13.2245258601
     H     4.6260282259   13.3243952672   13.5512590013
