34
-9.9852401388661224e+02 frame 30   xyz file generated by TeraChem
    Mn     0.4800798637   -0.0991407269    3.9513942464
     N     1.9140535371    1.1557285745    3.8504279131
     N     1.3942139631   -1.9171968602    3.7076848823
     N     0.1485601477    0.5160733722    1.1667001942
     N    -1.3198968042   -1.1627755710    4.5602026446
     N     0.7440838889   -0.2597661838    6.2333277811
     N     0.6047893240    0.7868369190    0.1446007835
     N    -0.3981089369    0.2344977980    2.2176182971
     N    -0.9010066681    1.5880370144    4.8864542829
     N     3.1169038037   -2.9149912833    4.9904607694
     N     2.2871616215   -2.4138813632    4.3519541474
     N     2.8250692158    1.1172417765    3.0350500277
     N     3.7139451850    1.1545297712    2.3107016808
     C     0.1569413523   -1.5732384308    6.5762488772
     C    -1.2321295332   -1.7366045637    5.9359915369
     C    -2.4781574523   -0.2585870830    4.3532653341
     C    -2.2674713996    1.0722957480    5.0941379020
     C    -0.1812331017    2.0673068242    6.0736248505
     C     0.1914682825    0.8904221871    6.9913277014
     H    -1.4973780264   -2.7990091308    5.9206478767
     H    -1.9868543024   -1.2378478376    6.5518112617
     H     0.9075283062    1.2390590915    7.7445142748
     H    -0.6904751721    0.5479404900    7.5435572543
     H    -0.7508007765    2.8087869134    6.6562287979
     H     0.7306003752    2.5444659142    5.7068433879
     H     0.0613042190   -1.7056046342    7.6648818571
     H     0.8422355309   -2.3403297977    6.2175286179
     H    -3.0280686648    1.7874751481    4.7560613816
     H    -2.4321560200    0.9397037819    6.1685233328
     H    -0.8783606257    2.2787009565    4.1412141410
     H    -3.4157252743   -0.7270911909    4.6866419223
     H    -2.5423824813   -0.0812335104    3.2779713250
     H     1.7548292542   -0.3043580011    6.3551500720
     H    -1.3419528909   -1.9090464033    3.8669552932
