30
-9.9852619358144466e+02 frame 56   xyz file generated by TeraChem
    Mn     4.8321049209    1.4517187276    2.7053142392
     N     3.5962291252    0.9789833624    0.8900601399
     C     5.6168808969    2.8376401532    4.7652854553
     O     5.9799293539    3.4356548903    5.6558378466
     C     6.7409553116    1.2149049840    1.9162859996
     O     7.7825680442    1.0402846567    1.4759680579
     C     4.8776285874   -0.1062149392    4.0487023810
     O     4.9490808669   -0.9767824380    4.7921183731
     O     2.6105942973    2.1248127001    3.1448186796
     H     2.0726869498    1.4302617365    3.5595619922
     O     4.7020560239    3.6611660643    2.0298046352
     C     3.9998044331    0.1672436316   -0.1044137738
     H     4.9482831044   -0.3399717999    0.0461652485
     C     3.2608616342   -0.0296404176   -1.2659516758
     H     3.6288721116   -0.6967000990   -2.0377910409
     C     2.0469117391    0.6433412951   -1.4012154996
     H     1.4361837212    0.5107051462   -2.2889787688
     C     1.6208181792    1.4802818726   -0.3705055598
     H     0.6714953139    2.0038232299   -0.4385738236
     C     2.4229676084    1.6269309707    0.7613822814
     C     1.9997687862    2.5374031720    1.9109367751
     H     0.9100028667    2.4744497914    2.0102302417
     C     2.3358160200    4.0229330726    1.6922060731
     H     1.8525598566    4.3781982079    0.7735582138
     H     1.8797908580    4.6014055841    2.5087249629
     C     3.8048579526    4.4153668903    1.6616275528
     C     4.1220557983    5.8034127029    1.1732437329
     H     5.1474504752    6.0698083790    1.4348803111
     H     3.4210658521    6.5415071118    1.5784823264
     H     4.0173613237    5.8314286999    0.0798705593
