31
-2.4099228985294731e+03 frame 34   xyz file generated by TeraChem
    Mn     4.8059300501   -0.0028178713   32.7512337511
     C     7.5339020329    1.0817535746   31.0738121754
     H     6.7888524910    1.8773104534   31.0514797444
     H     7.6290192289    0.6416363205   30.0692902901
     C     8.8942235930    1.4867281173   31.6378592262
     H     9.5431805261    1.9591982687   30.8917577168
     H     8.7565587508    2.1839753946   32.4721385342
     C     9.4298943062    0.1365648680   32.1449462079
     H    10.1826739203    0.2375828739   32.9341536971
     H     9.8853672514   -0.4217711636   31.3171758703
     C     8.1581397022   -0.5727287476   32.6458823874
     H     8.1260000416   -1.6369584835   32.3948561364
     H     8.0018785435   -0.4602816468   33.7215364371
    Cl     4.4834575511    2.2981308893   32.4082790227
    Cl     3.9421081406   -0.4033482707   30.6024948287
     O     7.0527914804    0.0881315156   31.9905769644
     C     2.0818161806   -1.0817477850   34.4373888905
     H     2.8224593378   -1.8815996400   34.4550293252
     H     1.9996258800   -0.6381344455   35.4414558602
     C     0.7134469537   -1.4807146844   33.8886423982
     H     0.0688214324   -1.9449227828   34.6436324751
     H     0.8378515825   -2.1835972251   33.0569250487
     C     0.1817251540   -0.1298618028   33.3793240426
     H    -0.5810639015   -0.2300780252   32.5996478052
     H    -0.2599415485    0.4367933464   34.2089747818
     C     1.4527639895    0.5661988973   32.8594888018
     H     1.4936893078    1.6330231979   33.0975749294
     H     1.5986952261    0.4405256907   31.7837411450
    Cl     5.1288294494   -2.3035432625   33.0941251850
    Cl     5.6674164363    0.3979888967   34.9013331993
     O     2.5596932908   -0.0934353579   33.5131200383
